# generated using pymatgen
data_MnBiAsO5
_symmetry_space_group_name_H-M   'P 1'
_cell_length_a   5.44616692
_cell_length_b   7.04471779
_cell_length_c   7.03299953
_cell_angle_alpha   109.88287497
_cell_angle_beta   108.48244753
_cell_angle_gamma   96.74324063
_symmetry_Int_Tables_number   1
_chemical_formula_structural   MnBiAsO5
_chemical_formula_sum   'Mn2 Bi2 As2 O10'
_cell_volume   232.85950596
_cell_formula_units_Z   2
loop_
 _symmetry_equiv_pos_site_id
 _symmetry_equiv_pos_as_xyz
  1  'x, y, z'
loop_
 _atom_site_type_symbol
 _atom_site_label
 _atom_site_symmetry_multiplicity
 _atom_site_fract_x
 _atom_site_fract_y
 _atom_site_fract_z
 _atom_site_occupancy
  Mn  Mn0  1  0.83095908  0.86990923  0.72129718  1.0
  Mn  Mn1  1  0.16904092  0.13009077  0.27870282  1.0
  Bi  Bi2  1  0.40479581  0.74367170  0.96907864  1.0
  Bi  Bi3  1  0.59520419  0.25632830  0.03092136  1.0
  As  As4  1  0.84794223  0.31959705  0.61555501  1.0
  As  As5  1  0.15205777  0.68040295  0.38444499  1.0
  O  O6  1  0.93055130  0.58424303  0.79126394  1.0
  O  O7  1  0.06944870  0.41575697  0.20873606  1.0
  O  O8  1  0.86642892  0.74189194  0.41841042  1.0
  O  O9  1  0.13357108  0.25810806  0.58158958  1.0
  O  O10  1  0.76696638  0.00253385  0.04616623  1.0
  O  O11  1  0.23303362  0.99746615  0.95383377  1.0
  O  O12  1  0.72784990  0.15958648  0.72740440  1.0
  O  O13  1  0.27215010  0.84041352  0.27259560  1.0
  O  O14  1  0.41432988  0.72284672  0.62843620  1.0
  O  O15  1  0.58567012  0.27715328  0.37156380  1.0
