# generated using pymatgen
data_Y4CdNi
_symmetry_space_group_name_H-M   'P 1'
_cell_length_a   9.58580608
_cell_length_b   9.58580608
_cell_length_c   9.58580608
_cell_angle_alpha   60.00000000
_cell_angle_beta   60.00000000
_cell_angle_gamma   60.00000000
_symmetry_Int_Tables_number   1
_chemical_formula_structural   Y4CdNi
_chemical_formula_sum   'Y16 Cd4 Ni4'
_cell_volume   622.83200112
_cell_formula_units_Z   4
loop_
 _symmetry_equiv_pos_site_id
 _symmetry_equiv_pos_as_xyz
  1  'x, y, z'
loop_
 _atom_site_type_symbol
 _atom_site_label
 _atom_site_symmetry_multiplicity
 _atom_site_fract_x
 _atom_site_fract_y
 _atom_site_fract_z
 _atom_site_occupancy
  Y  Y0  1  -0.34874573  0.65125427  0.65125427  1.0
  Y  Y1  1  1.04623718  0.65125427  -0.34874573  1.0
  Y  Y2  1  -0.34874573  0.65125427  1.04623718  1.0
  Y  Y3  1  0.65125427  1.04623718  -0.34874573  1.0
  Y  Y4  1  0.06378735  0.43621265  0.43621265  1.0
  Y  Y5  1  0.43621265  0.43621265  0.06378735  1.0
  Y  Y6  1  0.43621265  0.06378735  0.43621265  1.0
  Y  Y7  1  0.06378735  0.06378735  0.43621265  1.0
  Y  Y8  1  0.06378735  0.43621265  0.06378735  1.0
  Y  Y9  1  0.43621265  0.06378735  0.06378735  1.0
  Y  Y10  1  -0.81088629  0.81088629  0.81088629  1.0
  Y  Y11  1  -0.18911371  0.81088629  0.18911371  1.0
  Y  Y12  1  -0.18911371  0.18911371  0.81088629  1.0
  Y  Y13  1  0.18911371  1.18911371  -0.18911371  1.0
  Y  Y14  1  0.18911371  -0.18911371  0.18911371  1.0
  Y  Y15  1  -0.18911371  0.18911371  0.18911371  1.0
  Cd  Cd16  1  0.41897262  1.41897262  0.41897262  1.0
  Cd  Cd17  1  -0.25691785  0.41897262  0.41897262  1.0
  Cd  Cd18  1  0.41897262  1.41897262  -0.25691785  1.0
  Cd  Cd19  1  0.41897262  -0.25691785  0.41897262  1.0
  Ni  Ni20  1  0.85760746  0.85760746  -0.14239254  1.0
  Ni  Ni21  1  0.42717762  0.85760746  -0.14239254  1.0
  Ni  Ni22  1  0.85760746  0.85760746  -0.57282238  1.0
  Ni  Ni23  1  0.85760746  0.42717762  -0.14239254  1.0
