# generated using pymatgen
data_RbY(MoO4)2
_symmetry_space_group_name_H-M   'P 1'
_cell_length_a   5.11554474
_cell_length_b   19.58727875
_cell_length_c   8.23266750
_cell_angle_alpha   90.00000000
_cell_angle_beta   90.00000000
_cell_angle_gamma   90.00000000
_symmetry_Int_Tables_number   1
_chemical_formula_structural   RbY(MoO4)2
_chemical_formula_sum   'Rb4 Y4 Mo8 O32'
_cell_volume   824.90999626
_cell_formula_units_Z   4
loop_
 _symmetry_equiv_pos_site_id
 _symmetry_equiv_pos_as_xyz
  1  'x, y, z'
loop_
 _atom_site_type_symbol
 _atom_site_label
 _atom_site_symmetry_multiplicity
 _atom_site_fract_x
 _atom_site_fract_y
 _atom_site_fract_z
 _atom_site_occupancy
  Rb  Rb0  1  0.50000000  0.72409651  0.25000000  1.0
  Rb  Rb1  1  0.50000000  0.27590349  0.75000000  1.0
  Rb  Rb2  1  0.00000000  0.22409651  0.25000000  1.0
  Rb  Rb3  1  0.00000000  0.77590349  0.75000000  1.0
  Y  Y4  1  0.50000000  0.49675406  0.25000000  1.0
  Y  Y5  1  0.50000000  0.50324594  0.75000000  1.0
  Y  Y6  1  0.00000000  0.99675406  0.25000000  1.0
  Y  Y7  1  -0.00000000  0.00324594  0.75000000  1.0
  Mo  Mo8  1  0.47233449  0.09608264  0.00621119  1.0
  Mo  Mo9  1  0.47233449  0.90391736  0.50621119  1.0
  Mo  Mo10  1  0.97233449  0.59608264  0.49378881  1.0
  Mo  Mo11  1  0.97233449  0.40391736  0.99378881  1.0
  Mo  Mo12  1  0.52766551  0.09608264  0.49378881  1.0
  Mo  Mo13  1  0.52766551  0.90391736  0.99378881  1.0
  Mo  Mo14  1  0.02766551  0.59608264  0.00621119  1.0
  Mo  Mo15  1  0.02766551  0.40391736  0.50621119  1.0
  O  O16  1  0.41312939  0.17970118  0.48677643  1.0
  O  O17  1  0.41312939  0.82029882  0.98677643  1.0
  O  O18  1  0.91312939  0.67970118  0.01322357  1.0
  O  O19  1  0.91312939  0.32029882  0.51322357  1.0
  O  O20  1  0.58687061  0.17970118  0.01322357  1.0
  O  O21  1  0.58687061  0.82029882  0.51322357  1.0
  O  O22  1  0.08687061  0.67970118  0.48677643  1.0
  O  O23  1  0.08687061  0.32029882  0.98677643  1.0
  O  O24  1  0.25880323  0.08647869  0.17731328  1.0
  O  O25  1  0.25880323  0.91352131  0.67731328  1.0
  O  O26  1  0.75880323  0.58647869  0.32268672  1.0
  O  O27  1  0.75880323  0.41352131  0.82268672  1.0
  O  O28  1  0.74119677  0.08647869  0.32268672  1.0
  O  O29  1  0.74119677  0.91352131  0.82268672  1.0
  O  O30  1  0.24119677  0.58647869  0.17731328  1.0
  O  O31  1  0.24119677  0.41352131  0.67731328  1.0
  O  O32  1  0.25046813  0.46367427  0.00155622  1.0
  O  O33  1  0.25046813  0.53632573  0.50155622  1.0
  O  O34  1  0.75046813  0.96367427  0.49844378  1.0
  O  O35  1  0.75046813  0.03632573  0.99844378  1.0
  O  O36  1  0.74953187  0.46367427  0.49844378  1.0
  O  O37  1  0.74953187  0.53632573  0.99844378  1.0
  O  O38  1  0.24953187  0.96367427  0.00155622  1.0
  O  O39  1  0.24953187  0.03632573  0.50155622  1.0
  O  O40  1  0.23410423  0.41008848  0.33285842  1.0
  O  O41  1  0.23410423  0.58991152  0.83285842  1.0
  O  O42  1  0.73410423  0.91008848  0.16714158  1.0
  O  O43  1  0.73410423  0.08991152  0.66714158  1.0
  O  O44  1  0.76589577  0.41008848  0.16714158  1.0
  O  O45  1  0.76589577  0.58991152  0.66714158  1.0
  O  O46  1  0.26589577  0.91008848  0.33285842  1.0
  O  O47  1  0.26589577  0.08991152  0.83285842  1.0
