# generated using pymatgen
data_GeAs2
_symmetry_space_group_name_H-M   'P 1'
_cell_length_a   10.68122279
_cell_length_b   15.44677220
_cell_length_c   3.77542398
_cell_angle_alpha   90.00000000
_cell_angle_beta   90.00000000
_cell_angle_gamma   90.00000000
_symmetry_Int_Tables_number   1
_chemical_formula_structural   GeAs2
_chemical_formula_sum   'Ge8 As16'
_cell_volume   622.90877040
_cell_formula_units_Z   8
loop_
 _symmetry_equiv_pos_site_id
 _symmetry_equiv_pos_as_xyz
  1  'x, y, z'
loop_
 _atom_site_type_symbol
 _atom_site_label
 _atom_site_symmetry_multiplicity
 _atom_site_fract_x
 _atom_site_fract_y
 _atom_site_fract_z
 _atom_site_occupancy
  Ge  Ge0  1  0.07029411  0.64964513  0.50000000  1.0
  Ge  Ge1  1  0.57029411  0.85035487  0.50000000  1.0
  Ge  Ge2  1  0.92970589  0.35035487  0.50000000  1.0
  Ge  Ge3  1  0.42970589  0.14964513  0.50000000  1.0
  Ge  Ge4  1  0.28415403  0.77298201  0.00000000  1.0
  Ge  Ge5  1  0.78415403  0.72701799  0.00000000  1.0
  Ge  Ge6  1  0.71584597  0.22701799  0.00000000  1.0
  Ge  Ge7  1  0.21584597  0.27298201  0.00000000  1.0
  As  As8  1  0.25662000  0.55256379  0.50000000  1.0
  As  As9  1  0.75662000  0.94743621  0.50000000  1.0
  As  As10  1  0.74338000  0.44743621  0.50000000  1.0
  As  As11  1  0.24338000  0.05256379  0.50000000  1.0
  As  As12  1  0.13930375  0.80220033  0.50000000  1.0
  As  As13  1  0.63930375  0.69779967  0.50000000  1.0
  As  As14  1  0.86069625  0.19779967  0.50000000  1.0
  As  As15  1  0.36069625  0.30220033  0.50000000  1.0
  As  As16  1  0.43539473  0.89591502  0.00000000  1.0
  As  As17  1  0.93539473  0.60408498  0.00000000  1.0
  As  As18  1  0.56460527  0.10408498  0.00000000  1.0
  As  As19  1  0.06460527  0.39591502  0.00000000  1.0
  As  As20  1  0.37714812  0.62192914  0.00000000  1.0
  As  As21  1  0.87714812  0.87807086  0.00000000  1.0
  As  As22  1  0.62285188  0.37807086  0.00000000  1.0
  As  As23  1  0.12285188  0.12192914  0.00000000  1.0
