# generated using pymatgen
data_Y3Ge3Ir2
_symmetry_space_group_name_H-M   'P 1'
_cell_length_a   5.67933374
_cell_length_b   5.67933374
_cell_length_c   14.31566830
_cell_angle_alpha   90.00000000
_cell_angle_beta   90.00000000
_cell_angle_gamma   135.25194187
_symmetry_Int_Tables_number   1
_chemical_formula_structural   Y3Ge3Ir2
_chemical_formula_sum   'Y6 Ge6 Ir4'
_cell_volume   325.06731248
_cell_formula_units_Z   2
loop_
 _symmetry_equiv_pos_site_id
 _symmetry_equiv_pos_as_xyz
  1  'x, y, z'
loop_
 _atom_site_type_symbol
 _atom_site_label
 _atom_site_symmetry_multiplicity
 _atom_site_fract_x
 _atom_site_fract_y
 _atom_site_fract_z
 _atom_site_occupancy
  Y  Y0  1  0.08416641  0.91583359  0.88984291  1.0
  Y  Y1  1  0.08416641  0.91583359  0.61015709  1.0
  Y  Y2  1  -0.08416641  0.08416641  0.38984291  1.0
  Y  Y3  1  -0.08416641  0.08416641  0.11015709  1.0
  Y  Y4  1  0.35814842  0.64185158  0.75000000  1.0
  Y  Y5  1  -0.35814842  0.35814842  0.25000000  1.0
  Ge  Ge6  1  0.37541737  0.62458263  0.96444258  1.0
  Ge  Ge7  1  0.37541737  0.62458263  0.53555742  1.0
  Ge  Ge8  1  -0.37541737  0.37541737  0.46444258  1.0
  Ge  Ge9  1  -0.37541737  0.37541737  0.03555742  1.0
  Ge  Ge10  1  -0.34315534  0.34315534  0.75000000  1.0
  Ge  Ge11  1  0.34315534  0.65684466  0.25000000  1.0
  Ir  Ir12  1  0.20072439  0.79927561  0.39786827  1.0
  Ir  Ir13  1  0.20072439  0.79927561  0.10213173  1.0
  Ir  Ir14  1  -0.20072439  0.20072439  0.89786827  1.0
  Ir  Ir15  1  -0.20072439  0.20072439  0.60213173  1.0
