# generated using pymatgen
data_Na2YHC2O7
_symmetry_space_group_name_H-M   'P 1'
_cell_length_a   9.42461970
_cell_length_b   9.42461970
_cell_length_c   11.42989620
_cell_angle_alpha   83.90063135
_cell_angle_beta   96.09936865
_cell_angle_gamma   141.74478702
_symmetry_Int_Tables_number   1
_chemical_formula_structural   Na2YHC2O7
_chemical_formula_sum   'Na8 Y4 H4 C8 O28'
_cell_volume   624.61542279
_cell_formula_units_Z   4
loop_
 _symmetry_equiv_pos_site_id
 _symmetry_equiv_pos_as_xyz
  1  'x, y, z'
loop_
 _atom_site_type_symbol
 _atom_site_label
 _atom_site_symmetry_multiplicity
 _atom_site_fract_x
 _atom_site_fract_y
 _atom_site_fract_z
 _atom_site_occupancy
  Na  Na0  1  0.79158774  0.01390026  0.61655381  1.0
  Na  Na1  1  0.98609974  0.20841226  0.11655381  1.0
  Na  Na2  1  1.01390026  0.79158774  0.88344619  1.0
  Na  Na3  1  0.20841226  -0.01390026  0.38344619  1.0
  Na  Na4  1  0.67448014  0.14146831  0.85687978  1.0
  Na  Na5  1  0.85853169  0.32551986  0.35687978  1.0
  Na  Na6  1  1.14146831  0.67448014  0.64312022  1.0
  Na  Na7  1  0.32551986  -0.14146831  0.14312022  1.0
  Y  Y8  1  0.40398087  0.28278795  0.63266321  1.0
  Y  Y9  1  0.71721205  0.59601913  0.13266321  1.0
  Y  Y10  1  1.28278795  0.40398087  0.86733679  1.0
  Y  Y11  1  0.59601913  -0.28278795  0.36733679  1.0
  H  H12  1  0.44871154  0.25195135  0.88095645  1.0
  H  H13  1  0.74804865  0.55128846  0.38095645  1.0
  H  H14  1  1.25195135  0.44871154  0.61904355  1.0
  H  H15  1  0.55128846  -0.25195135  0.11904355  1.0
  C  C16  1  0.73314159  -0.13753171  0.88241865  1.0
  C  C17  1  1.13753171  0.26685841  0.38241865  1.0
  C  C18  1  0.86246829  0.73314159  0.61758135  1.0
  C  C19  1  0.26685841  0.13753171  0.11758135  1.0
  C  C20  1  0.63030923  0.21697928  0.57835902  1.0
  C  C21  1  0.78302072  0.36969077  0.07835902  1.0
  C  C22  1  1.21697928  0.63030923  0.92164098  1.0
  C  C23  1  0.36969077  -0.21697928  0.42164098  1.0
  O  O24  1  0.68071149  -0.30470644  0.93376604  1.0
  O  O25  1  1.30470644  0.31928851  0.43376604  1.0
  O  O26  1  0.69529356  0.68071149  0.56623396  1.0
  O  O27  1  0.31928851  0.30470644  0.06623396  1.0
  O  O28  1  0.91027108  0.06986719  0.91493204  1.0
  O  O29  1  0.93013281  0.08972892  0.41493204  1.0
  O  O30  1  1.06986719  0.91027108  0.58506796  1.0
  O  O31  1  0.08972892  -0.06986719  0.08506796  1.0
  O  O32  1  0.59500610  -0.19204911  0.79830808  1.0
  O  O33  1  1.19204911  0.40499390  0.29830808  1.0
  O  O34  1  0.80795089  0.59500610  0.70169192  1.0
  O  O35  1  0.40499390  0.19204911  0.20169192  1.0
  O  O36  1  0.25614690  -0.20893704  0.93573339  1.0
  O  O37  1  1.20893704  0.74385310  0.43573339  1.0
  O  O38  1  0.79106296  0.25614690  0.56426661  1.0
  O  O39  1  0.74385310  0.20893704  0.06426661  1.0
  O  O40  1  0.51081707  0.11528749  0.67353595  1.0
  O  O41  1  0.88471251  0.48918293  0.17353595  1.0
  O  O42  1  1.11528749  0.51081707  0.82646405  1.0
  O  O43  1  0.48918293  -0.11528749  0.32646405  1.0
  O  O44  1  0.57905128  0.28396965  0.49768399  1.0
  O  O45  1  0.71603035  0.42094872  0.99768399  1.0
  O  O46  1  1.28396965  0.57905128  0.00231601  1.0
  O  O47  1  0.42094872  -0.28396965  0.50231601  1.0
  O  O48  1  0.33181865  0.20839794  0.82691151  1.0
  O  O49  1  0.79160206  0.66818135  0.32691151  1.0
  O  O50  1  1.20839794  0.33181865  0.67308849  1.0
  O  O51  1  0.66818135  -0.20839794  0.17308849  1.0
