# generated using pymatgen
data_Nb13Zn4C3
_symmetry_space_group_name_H-M   'P 1'
_cell_length_a   10.28413189
_cell_length_b   10.28413189
_cell_length_c   10.28413189
_cell_angle_alpha   60.00000000
_cell_angle_beta   60.00000000
_cell_angle_gamma   60.00000000
_symmetry_Int_Tables_number   1
_chemical_formula_structural   Nb13Zn4C3
_chemical_formula_sum   'Nb26 Zn8 C6'
_cell_volume   769.10903774
_cell_formula_units_Z   2
loop_
 _symmetry_equiv_pos_site_id
 _symmetry_equiv_pos_as_xyz
  1  'x, y, z'
loop_
 _atom_site_type_symbol
 _atom_site_label
 _atom_site_symmetry_multiplicity
 _atom_site_fract_x
 _atom_site_fract_y
 _atom_site_fract_z
 _atom_site_occupancy
  C  C0  1  0.50000000  0.50000000  -0.50000000  1.0
  C  C1  1  0.75000000  -0.25000000  0.75000000  1.0
  C  C2  1  0.62500000  -0.37500000  1.12500000  1.0
  C  C3  1  0.62500000  0.12500000  0.62500000  1.0
  C  C4  1  0.62500000  -0.37500000  0.62500000  1.0
  C  C5  1  1.12500000  -0.37500000  0.62500000  1.0
  Nb  Nb6  1  0.79108219  -0.66873830  1.08657392  1.0
  Nb  Nb7  1  -0.20891781  1.08657392  0.33126170  1.0
  Nb  Nb8  1  -0.08126170  0.45891781  0.45891781  1.0
  Nb  Nb9  1  0.16342608  0.45891781  0.45891781  1.0
  Nb  Nb10  1  -0.66873830  0.79108219  1.08657392  1.0
  Nb  Nb11  1  0.79108219  -0.20891781  1.08657392  1.0
  Nb  Nb12  1  0.79108219  0.08657392  0.79108219  1.0
  Nb  Nb13  1  -0.66873830  1.08657392  0.79108219  1.0
  Nb  Nb14  1  0.45891781  -0.08126170  0.45891781  1.0
  Nb  Nb15  1  0.45891781  0.45891781  -0.08126170  1.0
  Nb  Nb16  1  0.16342608  0.45891781  -0.08126170  1.0
  Nb  Nb17  1  0.16342608  -0.08126170  0.45891781  1.0
  Nb  Nb18  1  1.08657392  -0.20891781  0.79108219  1.0
  Nb  Nb19  1  -0.66873830  0.79108219  0.79108219  1.0
  Nb  Nb20  1  0.45891781  0.16342608  -0.08126170  1.0
  Nb  Nb21  1  0.45891781  -0.08126170  0.16342608  1.0
  Nb  Nb22  1  0.08657392  0.79108219  0.33126170  1.0
  Nb  Nb23  1  1.08657392  -0.66873830  0.79108219  1.0
  Nb  Nb24  1  0.79108219  -0.66873830  0.79108219  1.0
  Nb  Nb25  1  -0.20891781  0.79108219  0.33126170  1.0
  Nb  Nb26  1  0.45891781  0.16342608  0.45891781  1.0
  Nb  Nb27  1  -0.08126170  0.16342608  0.45891781  1.0
  Nb  Nb28  1  -0.08126170  0.45891781  0.16342608  1.0
  Nb  Nb29  1  0.45891781  0.45891781  0.16342608  1.0
  Nb  Nb30  1  0.00000000  1.00000000  -0.00000000  1.0
  Nb  Nb31  1  0.25000000  0.25000000  0.25000000  1.0
  Zn  Zn32  1  0.82001092  -0.17998908  0.53996725  1.0
  Zn  Zn33  1  0.82001092  -0.46003275  0.82001092  1.0
  Zn  Zn34  1  0.42998908  0.42998908  0.42998908  1.0
  Zn  Zn35  1  -0.28996725  0.42998908  0.42998908  1.0
  Zn  Zn36  1  0.53996725  -0.17998908  0.82001092  1.0
  Zn  Zn37  1  0.82001092  -0.17998908  0.82001092  1.0
  Zn  Zn38  1  0.42998908  -0.28996725  0.42998908  1.0
  Zn  Zn39  1  0.42998908  0.42998908  -0.28996725  1.0
