# generated using pymatgen
data_Ba5Cr5O14
_symmetry_space_group_name_H-M   'P 1'
_cell_length_a   5.78649564
_cell_length_b   5.78649564
_cell_length_c   11.97359551
_cell_angle_alpha   90.00000000
_cell_angle_beta   90.00000000
_cell_angle_gamma   120.00000000
_symmetry_Int_Tables_number   1
_chemical_formula_structural   Ba5Cr5O14
_chemical_formula_sum   'Ba5 Cr5 O14'
_cell_volume   347.20540336
_cell_formula_units_Z   1
loop_
 _symmetry_equiv_pos_site_id
 _symmetry_equiv_pos_as_xyz
  1  'x, y, z'
loop_
 _atom_site_type_symbol
 _atom_site_label
 _atom_site_symmetry_multiplicity
 _atom_site_fract_x
 _atom_site_fract_y
 _atom_site_fract_z
 _atom_site_occupancy
  O  O0  1  0.66693045  0.83346523  0.30813651  1.0
  O  O1  1  0.83346523  0.66693045  0.69186349  1.0
  O  O2  1  0.83346523  0.16653477  0.69186349  1.0
  O  O3  1  0.16653477  0.83346523  0.30813651  1.0
  O  O4  1  0.16653477  0.33306955  0.30813651  1.0
  O  O5  1  0.33306955  0.16653477  0.69186349  1.0
  O  O6  1  0.30438384  0.15219192  0.10316439  1.0
  O  O7  1  0.15219192  0.30438384  0.89683561  1.0
  O  O8  1  0.15219192  0.84780808  0.89683561  1.0
  O  O9  1  0.84780808  0.15219192  0.10316439  1.0
  O  O10  1  0.84780808  0.69561616  0.10316439  1.0
  O  O11  1  0.69561616  0.84780808  0.89683561  1.0
  O  O12  1  0.33333333  0.66666667  0.50437607  1.0
  O  O13  1  0.66666667  0.33333333  0.49562393  1.0
  Ba  Ba14  1  0.33333333  0.66666667  0.07509024  1.0
  Ba  Ba15  1  0.66666667  0.33333333  0.92490976  1.0
  Ba  Ba16  1  0.33333333  0.66666667  0.72962973  1.0
  Ba  Ba17  1  0.66666667  0.33333333  0.27037027  1.0
  Ba  Ba18  1  -0.00000000  -0.00000000  0.50000000  1.0
  Cr  Cr19  1  0.00000000  0.00000000  0.20135829  1.0
  Cr  Cr20  1  0.00000000  0.00000000  0.79864171  1.0
  Cr  Cr21  1  0.00000000  -0.00000000  0.00000000  1.0
  Cr  Cr22  1  0.33333333  0.66666667  0.36324441  1.0
  Cr  Cr23  1  0.66666667  0.33333333  0.63675559  1.0
