# generated using pymatgen
data_LiV2F6
_symmetry_space_group_name_H-M   'P 1'
_cell_length_a   4.71569228
_cell_length_b   4.71569228
_cell_length_c   9.36927009
_cell_angle_alpha   90.00000000
_cell_angle_beta   90.00000000
_cell_angle_gamma   90.00000000
_symmetry_Int_Tables_number   1
_chemical_formula_structural   LiV2F6
_chemical_formula_sum   'Li2 V4 F12'
_cell_volume   208.35152027
_cell_formula_units_Z   2
loop_
 _symmetry_equiv_pos_site_id
 _symmetry_equiv_pos_as_xyz
  1  'x, y, z'
loop_
 _atom_site_type_symbol
 _atom_site_label
 _atom_site_symmetry_multiplicity
 _atom_site_fract_x
 _atom_site_fract_y
 _atom_site_fract_z
 _atom_site_occupancy
  Li  Li0  1  0.50000000  0.50000000  0.50000000  1.0
  Li  Li1  1  0.00000000  0.00000000  0.00000000  1.0
  V  V2  1  0.50000000  0.50000000  0.16819298  1.0
  V  V3  1  0.50000000  0.50000000  0.83180702  1.0
  V  V4  1  0.00000000  0.00000000  0.66819298  1.0
  V  V5  1  0.00000000  0.00000000  0.33180702  1.0
  F  F6  1  0.19990537  0.80009463  0.16950158  1.0
  F  F7  1  0.19990537  0.80009463  0.83049842  1.0
  F  F8  1  0.69990537  0.69990537  0.66950158  1.0
  F  F9  1  0.69990537  0.69990537  0.33049842  1.0
  F  F10  1  0.80009463  0.19990537  0.16950158  1.0
  F  F11  1  0.80009463  0.19990537  0.83049842  1.0
  F  F12  1  0.30009463  0.30009463  0.66950158  1.0
  F  F13  1  0.30009463  0.30009463  0.33049842  1.0
  F  F14  1  0.19243859  0.80756141  0.50000000  1.0
  F  F15  1  0.69243859  0.69243859  0.00000000  1.0
  F  F16  1  0.80756141  0.19243859  0.50000000  1.0
  F  F17  1  0.30756141  0.30756141  0.00000000  1.0
