# generated using pymatgen
data_Ta5Sb4
_symmetry_space_group_name_H-M   'P 1'
_cell_length_a   7.52286898
_cell_length_b   7.52286898
_cell_length_c   7.52286898
_cell_angle_alpha   93.22468619
_cell_angle_beta   93.22468619
_cell_angle_gamma   152.56034126
_symmetry_Int_Tables_number   1
_chemical_formula_structural   Ta5Sb4
_chemical_formula_sum   'Ta5 Sb4'
_cell_volume   190.59190123
_cell_formula_units_Z   1
loop_
 _symmetry_equiv_pos_site_id
 _symmetry_equiv_pos_as_xyz
  1  'x, y, z'
loop_
 _atom_site_type_symbol
 _atom_site_label
 _atom_site_symmetry_multiplicity
 _atom_site_fract_x
 _atom_site_fract_y
 _atom_site_fract_z
 _atom_site_occupancy
  Ta  Ta0  1  0.68660896  0.62778814  0.31439710  1.0
  Ta  Ta1  1  0.62778814  0.31339104  0.94117918  1.0
  Ta  Ta2  1  1.31339104  1.37221186  1.68560290  1.0
  Ta  Ta3  1  0.37221186  0.68660896  1.05882082  1.0
  Ta  Ta4  1  0.00000000  0.00000000  0.00000000  1.0
  Sb  Sb5  1  0.94754912  0.70343705  0.65098617  1.0
  Sb  Sb6  1  0.70343705  0.05245088  0.75588792  1.0
  Sb  Sb7  1  1.05245088  1.29656295  1.34901383  1.0
  Sb  Sb8  1  0.29656295  0.94754912  1.24411208  1.0
