# generated using pymatgen
data_Br2O
_symmetry_space_group_name_H-M   'P 1'
_cell_length_a   10.49444343
_cell_length_b   4.45305168
_cell_length_c   7.06418145
_cell_angle_alpha   90.00000000
_cell_angle_beta   90.00000000
_cell_angle_gamma   90.00000000
_symmetry_Int_Tables_number   1
_chemical_formula_structural   Br2O
_chemical_formula_sum   'Br8 O4'
_cell_volume   330.12543921
_cell_formula_units_Z   4
loop_
 _symmetry_equiv_pos_site_id
 _symmetry_equiv_pos_as_xyz
  1  'x, y, z'
loop_
 _atom_site_type_symbol
 _atom_site_label
 _atom_site_symmetry_multiplicity
 _atom_site_fract_x
 _atom_site_fract_y
 _atom_site_fract_z
 _atom_site_occupancy
  Br  Br0  1  0.50511707  0.62101725  0.49520085  1.0
  Br  Br1  1  1.00511707  0.87898275  0.49520085  1.0
  Br  Br2  1  0.49488293  0.37898275  -0.00479915  1.0
  Br  Br3  1  -0.00511707  0.12101725  -0.00479915  1.0
  Br  Br4  1  0.28282785  0.53152976  0.81134863  1.0
  Br  Br5  1  0.78282785  0.96847024  0.81134863  1.0
  Br  Br6  1  0.71717215  0.46847024  0.31134863  1.0
  Br  Br7  1  0.21717215  0.03152976  0.31134863  1.0
  O  O8  1  0.34851983  0.77521470  0.61865052  1.0
  O  O9  1  0.84851983  0.72478530  0.61865052  1.0
  O  O10  1  0.65148017  0.22478530  0.11865052  1.0
  O  O11  1  0.15148017  0.27521470  0.11865052  1.0
