# generated using pymatgen
data_Y2S3
_symmetry_space_group_name_H-M   'P 1'
_cell_length_a   10.20477296
_cell_length_b   4.03686838
_cell_length_c   17.65660928
_cell_angle_alpha   90.00000000
_cell_angle_beta   98.59919763
_cell_angle_gamma   90.00000000
_symmetry_Int_Tables_number   1
_chemical_formula_structural   Y2S3
_chemical_formula_sum   'Y12 S18'
_cell_volume   719.19301727
_cell_formula_units_Z   6
loop_
 _symmetry_equiv_pos_site_id
 _symmetry_equiv_pos_as_xyz
  1  'x, y, z'
loop_
 _atom_site_type_symbol
 _atom_site_label
 _atom_site_symmetry_multiplicity
 _atom_site_fract_x
 _atom_site_fract_y
 _atom_site_fract_z
 _atom_site_occupancy
  Y  Y0  1  0.17031440  0.25000000  0.71835403  1.0
  Y  Y1  1  0.82968560  0.75000000  0.28164597  1.0
  Y  Y2  1  0.45099159  0.25000000  0.38524813  1.0
  Y  Y3  1  0.54900841  0.75000000  0.61475187  1.0
  Y  Y4  1  0.51316738  0.25000000  0.10068254  1.0
  Y  Y5  1  0.48683262  0.75000000  0.89931746  1.0
  Y  Y6  1  0.81101310  0.25000000  0.47960647  1.0
  Y  Y7  1  0.18898690  0.75000000  0.52039353  1.0
  Y  Y8  1  0.81222877  0.25000000  0.77951716  1.0
  Y  Y9  1  0.18777123  0.75000000  0.22048284  1.0
  Y  Y10  1  0.87599621  0.25000000  0.07019553  1.0
  Y  Y11  1  0.12400379  0.75000000  0.92980447  1.0
  S  S12  1  0.63249772  0.25000000  0.96858179  1.0
  S  S13  1  0.36750228  0.75000000  0.03141821  1.0
  S  S14  1  0.04896758  0.25000000  0.57558661  1.0
  S  S15  1  0.95103242  0.75000000  0.42441339  1.0
  S  S16  1  0.28990071  0.25000000  0.86890074  1.0
  S  S17  1  0.71009929  0.75000000  0.13109926  1.0
  S  S18  1  0.36214321  0.25000000  0.21807708  1.0
  S  S19  1  0.63785679  0.75000000  0.78192292  1.0
  S  S20  1  0.38466263  0.25000000  0.53282164  1.0
  S  S21  1  0.61533737  0.75000000  0.46717836  1.0
  S  S22  1  0.68156076  0.25000000  0.31865796  1.0
  S  S23  1  0.31843924  0.75000000  0.68134204  1.0
  S  S24  1  0.73086570  0.25000000  0.62714387  1.0
  S  S25  1  0.26913430  0.75000000  0.37285613  1.0
  S  S26  1  0.94827780  0.25000000  0.92484005  1.0
  S  S27  1  0.05172220  0.75000000  0.07515995  1.0
  S  S28  1  0.99258581  0.25000000  0.23171118  1.0
  S  S29  1  0.00741419  0.75000000  0.76828882  1.0
