# generated using pymatgen
data_Cu2SnHgSe4
_symmetry_space_group_name_H-M   'P 1'
_cell_length_a   7.16426496
_cell_length_b   7.16426496
_cell_length_c   7.16426496
_cell_angle_alpha   131.09566995
_cell_angle_beta   131.09566995
_cell_angle_gamma   71.66112361
_symmetry_Int_Tables_number   1
_chemical_formula_structural   Cu2SnHgSe4
_chemical_formula_sum   'Cu2 Sn1 Hg1 Se4'
_cell_volume   204.32602828
_cell_formula_units_Z   1
loop_
 _symmetry_equiv_pos_site_id
 _symmetry_equiv_pos_as_xyz
  1  'x, y, z'
loop_
 _atom_site_type_symbol
 _atom_site_label
 _atom_site_symmetry_multiplicity
 _atom_site_fract_x
 _atom_site_fract_y
 _atom_site_fract_z
 _atom_site_occupancy
  Cu  Cu0  1  0.25000000  0.75000000  0.50000000  1.0
  Cu  Cu1  1  0.75000000  0.25000000  0.50000000  1.0
  Sn  Sn2  1  0.00000000  0.00000000  0.00000000  1.0
  Hg  Hg3  1  0.50000000  0.50000000  1.00000000  1.0
  Se  Se4  1  0.38617050  0.89902142  1.00000000  1.0
  Se  Se5  1  1.10097858  1.10097858  1.48714908  1.0
  Se  Se6  1  0.61382950  0.61382950  0.51285092  1.0
  Se  Se7  1  0.89902142  0.38617050  1.00000000  1.0
