# generated using pymatgen
data_CsYbZnTe3
_symmetry_space_group_name_H-M   'P 1'
_cell_length_a   8.98547815
_cell_length_b   8.98547815
_cell_length_c   11.72093177
_cell_angle_alpha   90.00000000
_cell_angle_beta   90.00000000
_cell_angle_gamma   151.87786470
_symmetry_Int_Tables_number   1
_chemical_formula_structural   CsYbZnTe3
_chemical_formula_sum   'Cs2 Yb2 Zn2 Te6'
_cell_volume   446.05711149
_cell_formula_units_Z   2
loop_
 _symmetry_equiv_pos_site_id
 _symmetry_equiv_pos_as_xyz
  1  'x, y, z'
loop_
 _atom_site_type_symbol
 _atom_site_label
 _atom_site_symmetry_multiplicity
 _atom_site_fract_x
 _atom_site_fract_y
 _atom_site_fract_z
 _atom_site_occupancy
  Cs  Cs0  1  -0.25466527  0.25466527  0.75000000  1.0
  Cs  Cs1  1  0.25466527  0.74533473  0.25000000  1.0
  Yb  Yb2  1  0.00000000  0.00000000  0.00000000  1.0
  Yb  Yb3  1  0.00000000  0.00000000  0.50000000  1.0
  Zn  Zn4  1  0.46323874  0.53676126  0.75000000  1.0
  Zn  Zn5  1  -0.46323874  0.46323874  0.25000000  1.0
  Te  Te6  1  0.38103389  0.61896611  0.94157833  1.0
  Te  Te7  1  0.38103389  0.61896611  0.55842167  1.0
  Te  Te8  1  -0.38103389  0.38103389  0.44157833  1.0
  Te  Te9  1  -0.38103389  0.38103389  0.05842167  1.0
  Te  Te10  1  0.05906968  0.94093032  0.75000000  1.0
  Te  Te11  1  -0.05906968  0.05906968  0.25000000  1.0
