# generated using pymatgen
data_Ba3TaFe3(GeO7)2
_symmetry_space_group_name_H-M   'P 1'
_cell_length_a   8.79489526
_cell_length_b   8.79489526
_cell_length_c   5.31279491
_cell_angle_alpha   90.00000000
_cell_angle_beta   90.00000000
_cell_angle_gamma   120.00000000
_symmetry_Int_Tables_number   1
_chemical_formula_structural   Ba3TaFe3(GeO7)2
_chemical_formula_sum   'Ba3 Ta1 Fe3 Ge2 O14'
_cell_volume   355.88937839
_cell_formula_units_Z   1
loop_
 _symmetry_equiv_pos_site_id
 _symmetry_equiv_pos_as_xyz
  1  'x, y, z'
loop_
 _atom_site_type_symbol
 _atom_site_label
 _atom_site_symmetry_multiplicity
 _atom_site_fract_x
 _atom_site_fract_y
 _atom_site_fract_z
 _atom_site_occupancy
  Fe  Fe0  1  0.75133951  0.75133951  0.50000000  1.0
  Fe  Fe1  1  0.00000000  0.24866049  0.50000000  1.0
  Fe  Fe2  1  0.24866049  0.00000000  0.50000000  1.0
  Ge  Ge3  1  0.33333333  0.66666667  0.52023997  1.0
  Ge  Ge4  1  0.66666667  0.33333333  0.47976003  1.0
  Ta  Ta5  1  0.00000000  0.00000000  0.00000000  1.0
  Ba  Ba6  1  0.42452697  0.42452697  0.00000000  1.0
  Ba  Ba7  1  0.00000000  0.57547303  0.00000000  1.0
  Ba  Ba8  1  0.57547303  0.00000000  0.00000000  1.0
  O  O9  1  0.33333333  0.66666667  0.19389034  1.0
  O  O10  1  0.66666667  0.33333333  0.80610966  1.0
  O  O11  1  0.10114126  0.88866168  0.22348384  1.0
  O  O12  1  0.88866168  0.10114126  0.77651616  1.0
  O  O13  1  0.78752043  0.89885874  0.22348384  1.0
  O  O14  1  0.11133832  0.21247957  0.22348384  1.0
  O  O15  1  0.89885874  0.78752043  0.77651616  1.0
  O  O16  1  0.21247957  0.11133832  0.77651616  1.0
  O  O17  1  0.70179993  0.53434918  0.33994435  1.0
  O  O18  1  0.53434918  0.70179993  0.66005565  1.0
  O  O19  1  0.83254924  0.29820007  0.33994435  1.0
  O  O20  1  0.46565082  0.16745076  0.33994435  1.0
  O  O21  1  0.29820007  0.83254924  0.66005565  1.0
  O  O22  1  0.16745076  0.46565082  0.66005565  1.0
