# generated using pymatgen
data_RbLiZn2O3
_symmetry_space_group_name_H-M   'P 1'
_cell_length_a   10.46636379
_cell_length_b   10.46636379
_cell_length_c   3.46082301
_cell_angle_alpha   90.00000000
_cell_angle_beta   90.00000000
_cell_angle_gamma   90.00000000
_symmetry_Int_Tables_number   1
_chemical_formula_structural   RbLiZn2O3
_chemical_formula_sum   'Rb4 Li4 Zn8 O12'
_cell_volume   379.11506481
_cell_formula_units_Z   4
loop_
 _symmetry_equiv_pos_site_id
 _symmetry_equiv_pos_as_xyz
  1  'x, y, z'
loop_
 _atom_site_type_symbol
 _atom_site_label
 _atom_site_symmetry_multiplicity
 _atom_site_fract_x
 _atom_site_fract_y
 _atom_site_fract_z
 _atom_site_occupancy
  Rb  Rb0  1  0.10960254  0.89039746  0.50000000  1.0
  Rb  Rb1  1  0.60960254  0.60960254  0.00000000  1.0
  Rb  Rb2  1  0.89039746  0.10960254  0.50000000  1.0
  Rb  Rb3  1  0.39039746  0.39039746  0.00000000  1.0
  Li  Li4  1  0.20124555  0.20124555  0.50000000  1.0
  Li  Li5  1  0.70124555  0.29875445  0.00000000  1.0
  Li  Li6  1  0.79875445  0.79875445  0.50000000  1.0
  Li  Li7  1  0.29875445  0.70124555  0.00000000  1.0
  Zn  Zn8  1  0.42679205  0.82831370  0.50000000  1.0
  Zn  Zn9  1  0.92679205  0.67168630  0.00000000  1.0
  Zn  Zn10  1  0.17168630  0.57320795  0.50000000  1.0
  Zn  Zn11  1  0.67168630  0.92679205  0.00000000  1.0
  Zn  Zn12  1  0.57320795  0.17168630  0.50000000  1.0
  Zn  Zn13  1  0.07320795  0.32831370  0.00000000  1.0
  Zn  Zn14  1  0.82831370  0.42679205  0.50000000  1.0
  Zn  Zn15  1  0.32831370  0.07320795  0.00000000  1.0
  O  O16  1  0.38620221  0.15554616  0.50000000  1.0
  O  O17  1  0.88620221  0.34445384  0.00000000  1.0
  O  O18  1  0.84445384  0.61379779  0.50000000  1.0
  O  O19  1  0.34445384  0.88620221  0.00000000  1.0
  O  O20  1  0.61379779  0.84445384  0.50000000  1.0
  O  O21  1  0.11379779  0.65554616  0.00000000  1.0
  O  O22  1  0.15554616  0.38620221  0.50000000  1.0
  O  O23  1  0.65554616  0.11379779  0.00000000  1.0
  O  O24  1  0.35814289  0.64185711  0.50000000  1.0
  O  O25  1  0.85814289  0.85814289  0.00000000  1.0
  O  O26  1  0.64185711  0.35814289  0.50000000  1.0
  O  O27  1  0.14185711  0.14185711  0.00000000  1.0
