# generated using pymatgen
data_La3Zn4P6Cl
_symmetry_space_group_name_H-M   'P 1'
_cell_length_a   7.15825678
_cell_length_b   7.15825678
_cell_length_c   21.63735793
_cell_angle_alpha   90.00000000
_cell_angle_beta   90.00000000
_cell_angle_gamma   146.94498201
_symmetry_Int_Tables_number   1
_chemical_formula_structural   La3Zn4P6Cl
_chemical_formula_sum   'La6 Zn8 P12 Cl2'
_cell_volume   604.74047194
_cell_formula_units_Z   2
loop_
 _symmetry_equiv_pos_site_id
 _symmetry_equiv_pos_as_xyz
  1  'x, y, z'
loop_
 _atom_site_type_symbol
 _atom_site_label
 _atom_site_symmetry_multiplicity
 _atom_site_fract_x
 _atom_site_fract_y
 _atom_site_fract_z
 _atom_site_occupancy
  La  La0  1  -0.24074952  0.24074952  0.87541651  1.0
  La  La1  1  0.24074952  0.75925048  0.12458349  1.0
  La  La2  1  -0.24074952  0.24074952  0.62458349  1.0
  La  La3  1  0.24074952  0.75925048  0.37541651  1.0
  La  La4  1  0.49194385  0.50805615  0.25000000  1.0
  La  La5  1  -0.49194385  0.49194385  0.75000000  1.0
  Zn  Zn6  1  -0.01862626  0.01862626  0.38882664  1.0
  Zn  Zn7  1  0.01862626  0.98137374  0.61117336  1.0
  Zn  Zn8  1  -0.01862626  0.01862626  0.11117336  1.0
  Zn  Zn9  1  0.01862626  0.98137374  0.88882664  1.0
  Zn  Zn10  1  -0.36188518  0.36188518  0.48603609  1.0
  Zn  Zn11  1  0.36188518  0.63811482  0.51396391  1.0
  Zn  Zn12  1  -0.36188518  0.36188518  0.01396391  1.0
  Zn  Zn13  1  0.36188518  0.63811482  0.98603609  1.0
  P  P14  1  -0.14303696  0.14303696  0.30180254  1.0
  P  P15  1  0.14303696  0.85696304  0.69819746  1.0
  P  P16  1  -0.14303696  0.14303696  0.19819746  1.0
  P  P17  1  0.14303696  0.85696304  0.80180254  1.0
  P  P18  1  -0.15627613  0.15627613  0.45782373  1.0
  P  P19  1  0.15627613  0.84372387  0.54217627  1.0
  P  P20  1  -0.15627613  0.15627613  0.04217627  1.0
  P  P21  1  0.15627613  0.84372387  0.95782373  1.0
  P  P22  1  -0.42229434  0.42229434  0.38371761  1.0
  P  P23  1  0.42229434  0.57770566  0.61628239  1.0
  P  P24  1  -0.42229434  0.42229434  0.11628239  1.0
  P  P25  1  0.42229434  0.57770566  0.88371761  1.0
  Cl  Cl26  1  0.14833466  0.85166534  0.25000000  1.0
  Cl  Cl27  1  -0.14833466  0.14833466  0.75000000  1.0
