# generated using pymatgen
data_BC3
_symmetry_space_group_name_H-M   'P 1'
_cell_length_a   2.50793086
_cell_length_b   2.50793086
_cell_length_c   3.92019442
_cell_angle_alpha   90.00000000
_cell_angle_beta   90.00000000
_cell_angle_gamma   90.00000000
_symmetry_Int_Tables_number   1
_chemical_formula_structural   BC3
_chemical_formula_sum   'B1 C3'
_cell_volume   24.65691418
_cell_formula_units_Z   1
loop_
 _symmetry_equiv_pos_site_id
 _symmetry_equiv_pos_as_xyz
  1  'x, y, z'
loop_
 _atom_site_type_symbol
 _atom_site_label
 _atom_site_symmetry_multiplicity
 _atom_site_fract_x
 _atom_site_fract_y
 _atom_site_fract_z
 _atom_site_occupancy
  B  B0  1  0.50000000  0.50000000  0.50000000  1.0
  C  C1  1  0.00000000  0.00000000  0.00000000  1.0
  C  C2  1  0.50000000  -0.00000000  0.22723319  1.0
  C  C3  1  -0.00000000  0.50000000  0.77276681  1.0
