# generated using pymatgen
data_La5Tl3
_symmetry_space_group_name_H-M   'P 1'
_cell_length_a   9.66013296
_cell_length_b   9.66013296
_cell_length_c   9.66013296
_cell_angle_alpha   96.37957771
_cell_angle_beta   96.37957771
_cell_angle_gamma   141.05690257
_symmetry_Int_Tables_number   1
_chemical_formula_structural   La5Tl3
_chemical_formula_sum   'La10 Tl6'
_cell_volume   534.20851408
_cell_formula_units_Z   2
loop_
 _symmetry_equiv_pos_site_id
 _symmetry_equiv_pos_as_xyz
  1  'x, y, z'
loop_
 _atom_site_type_symbol
 _atom_site_label
 _atom_site_symmetry_multiplicity
 _atom_site_fract_x
 _atom_site_fract_y
 _atom_site_fract_z
 _atom_site_occupancy
  La  La0  1  0.28067371  0.41341327  0.69408698  1.0
  La  La1  1  1.21932629  0.91341327  1.13273956  1.0
  La  La2  1  0.91341327  0.78067371  1.69408698  1.0
  La  La3  1  0.58658673  1.28067371  0.86726044  1.0
  La  La4  1  0.78067371  1.08658673  0.86726044  1.0
  La  La5  1  0.71932629  0.58658673  1.30591302  1.0
  La  La6  1  1.41341327  0.71932629  1.13273956  1.0
  La  La7  1  0.08658673  0.21932629  0.30591302  1.0
  La  La8  1  0.75000000  1.25000000  0.50000000  1.0
  La  La9  1  0.25000000  0.75000000  0.50000000  1.0
  Tl  Tl10  1  0.83924926  0.33924926  1.17849852  1.0
  Tl  Tl11  1  0.66075074  0.83924926  0.50000000  1.0
  Tl  Tl12  1  1.33924926  1.16075074  1.50000000  1.0
  Tl  Tl13  1  0.16075074  0.66075074  0.82150148  1.0
  Tl  Tl14  1  0.25000000  0.25000000  -0.00000000  1.0
  Tl  Tl15  1  0.75000000  0.75000000  -0.00000000  1.0
