# generated using pymatgen
data_Na2P2O7
_symmetry_space_group_name_H-M   'P 1'
_cell_length_a   7.19577379
_cell_length_b   13.99820995
_cell_length_c   7.10481889
_cell_angle_alpha   90.00000000
_cell_angle_beta   98.81967999
_cell_angle_gamma   90.00000000
_symmetry_Int_Tables_number   1
_chemical_formula_structural   Na2P2O7
_chemical_formula_sum   'Na8 P8 O28'
_cell_volume   707.19180616
_cell_formula_units_Z   4
loop_
 _symmetry_equiv_pos_site_id
 _symmetry_equiv_pos_as_xyz
  1  'x, y, z'
loop_
 _atom_site_type_symbol
 _atom_site_label
 _atom_site_symmetry_multiplicity
 _atom_site_fract_x
 _atom_site_fract_y
 _atom_site_fract_z
 _atom_site_occupancy
  O  O0  1  0.81060086  0.56635701  0.61610486  1.0
  O  O1  1  0.18939914  0.06635701  0.88389514  1.0
  O  O2  1  0.18939914  0.43364299  0.38389514  1.0
  O  O3  1  0.81060086  0.93364299  0.11610486  1.0
  O  O4  1  0.27172670  0.54578790  0.65203066  1.0
  O  O5  1  0.72827330  0.04578790  0.84796934  1.0
  O  O6  1  0.72827330  0.45421210  0.34796934  1.0
  O  O7  1  0.27172670  0.95421210  0.15203066  1.0
  O  O8  1  0.50836654  0.61831463  0.92233606  1.0
  O  O9  1  0.49163346  0.11831463  0.57766394  1.0
  O  O10  1  0.49163346  0.38168537  0.07766394  1.0
  O  O11  1  0.50836654  0.88168537  0.42233606  1.0
  O  O12  1  0.23944038  0.71196644  0.76767332  1.0
  O  O13  1  0.76055962  0.21196644  0.73232668  1.0
  O  O14  1  0.76055962  0.28803356  0.23232668  1.0
  O  O15  1  0.23944038  0.78803356  0.26767332  1.0
  O  O16  1  0.55367009  0.61444178  0.36514386  1.0
  O  O17  1  0.44632991  0.11444178  0.13485614  1.0
  O  O18  1  0.44632991  0.38555822  0.63485614  1.0
  O  O19  1  0.55367009  0.88555822  0.86514386  1.0
  O  O20  1  0.17869245  0.57158872  0.98400470  1.0
  O  O21  1  0.82130755  0.07158872  0.51599530  1.0
  O  O22  1  0.82130755  0.42841128  0.01599530  1.0
  O  O23  1  0.17869245  0.92841128  0.48400470  1.0
  O  O24  1  0.88630441  0.61361902  0.28291808  1.0
  O  O25  1  0.11369559  0.11361902  0.21708192  1.0
  O  O26  1  0.11369559  0.38638098  0.71708192  1.0
  O  O27  1  0.88630441  0.88638098  0.78291808  1.0
  Na  Na28  1  0.83550398  0.59898262  0.94095293  1.0
  Na  Na29  1  0.16449602  0.09898262  0.55904707  1.0
  Na  Na30  1  0.16449602  0.40101738  0.05904707  1.0
  Na  Na31  1  0.83550398  0.90101738  0.44095293  1.0
  Na  Na32  1  0.22449013  0.62334552  0.32075199  1.0
  Na  Na33  1  0.77550987  0.12334552  0.17924801  1.0
  Na  Na34  1  0.77550987  0.37665448  0.67924801  1.0
  Na  Na35  1  0.22449013  0.87665448  0.82075199  1.0
  P  P36  1  0.29783049  0.61197990  0.84319557  1.0
  P  P37  1  0.70216951  0.11197990  0.65680443  1.0
  P  P38  1  0.70216951  0.38802010  0.15680443  1.0
  P  P39  1  0.29783049  0.88802010  0.34319557  1.0
  P  P40  1  0.74992526  0.56869435  0.39971658  1.0
  P  P41  1  0.25007474  0.06869435  1.10028342  1.0
  P  P42  1  0.25007474  0.43130565  0.60028342  1.0
  P  P43  1  0.74992526  0.93130565  -0.10028342  1.0
