# generated using pymatgen
data_Zr(BH4)4
_symmetry_space_group_name_H-M   'P 1'
_cell_length_a   6.29565738
_cell_length_b   6.29565738
_cell_length_c   6.29565738
_cell_angle_alpha   90.00000000
_cell_angle_beta   90.00000000
_cell_angle_gamma   90.00000000
_symmetry_Int_Tables_number   1
_chemical_formula_structural   Zr(BH4)4
_chemical_formula_sum   'Zr1 B4 H16'
_cell_volume   249.53028117
_cell_formula_units_Z   1
loop_
 _symmetry_equiv_pos_site_id
 _symmetry_equiv_pos_as_xyz
  1  'x, y, z'
loop_
 _atom_site_type_symbol
 _atom_site_label
 _atom_site_symmetry_multiplicity
 _atom_site_fract_x
 _atom_site_fract_y
 _atom_site_fract_z
 _atom_site_occupancy
  Zr  Zr0  1  0.00000000  0.00000000  0.00000000  1.0
  B  B1  1  0.78810078  0.78810078  0.21189922  1.0
  B  B2  1  0.78810078  0.21189922  0.78810078  1.0
  B  B3  1  0.21189922  0.78810078  0.78810078  1.0
  B  B4  1  0.21189922  0.21189922  0.21189922  1.0
  H  H5  1  0.75944925  0.75944925  0.01747772  1.0
  H  H6  1  0.75944925  0.98252228  0.24055075  1.0
  H  H7  1  0.75944925  0.24055075  0.98252228  1.0
  H  H8  1  0.75944925  0.01747772  0.75944925  1.0
  H  H9  1  0.98252228  0.75944925  0.24055075  1.0
  H  H10  1  0.98252228  0.24055075  0.75944925  1.0
  H  H11  1  0.24055075  0.75944925  0.98252228  1.0
  H  H12  1  0.24055075  0.98252228  0.75944925  1.0
  H  H13  1  0.24055075  0.24055075  0.01747772  1.0
  H  H14  1  0.24055075  0.01747772  0.24055075  1.0
  H  H15  1  0.01747772  0.75944925  0.75944925  1.0
  H  H16  1  0.01747772  0.24055075  0.24055075  1.0
  H  H17  1  0.67867775  0.67867775  0.32132225  1.0
  H  H18  1  0.67867775  0.32132225  0.67867775  1.0
  H  H19  1  0.32132225  0.67867775  0.67867775  1.0
  H  H20  1  0.32132225  0.32132225  0.32132225  1.0
