# generated using pymatgen
data_SrBeB2O5
_symmetry_space_group_name_H-M   'P 1'
_cell_length_a   5.21649847
_cell_length_b   4.03447418
_cell_length_c   18.37717625
_cell_angle_alpha   90.00000000
_cell_angle_beta   99.40514058
_cell_angle_gamma   90.00000000
_symmetry_Int_Tables_number   1
_chemical_formula_structural   SrBeB2O5
_chemical_formula_sum   'Sr4 Be4 B8 O20'
_cell_volume   381.56383930
_cell_formula_units_Z   4
loop_
 _symmetry_equiv_pos_site_id
 _symmetry_equiv_pos_as_xyz
  1  'x, y, z'
loop_
 _atom_site_type_symbol
 _atom_site_label
 _atom_site_symmetry_multiplicity
 _atom_site_fract_x
 _atom_site_fract_y
 _atom_site_fract_z
 _atom_site_occupancy
  Sr  Sr0  1  0.71421186  0.99016546  0.91734099  1.0
  Sr  Sr1  1  0.71421186  0.50983454  0.41734099  1.0
  Sr  Sr2  1  0.28578814  0.49016546  0.58265901  1.0
  Sr  Sr3  1  0.28578814  0.00983454  0.08265901  1.0
  Be  Be4  1  0.39192617  0.11682266  0.28511775  1.0
  Be  Be5  1  0.39192617  0.38317734  0.78511775  1.0
  Be  Be6  1  0.60807383  0.61682266  0.21488225  1.0
  Be  Be7  1  0.60807383  0.88317734  0.71488225  1.0
  B  B8  1  0.90207275  0.13321651  0.28317863  1.0
  B  B9  1  0.90207275  0.36678349  0.78317863  1.0
  B  B10  1  0.09792725  0.63321651  0.21682137  1.0
  B  B11  1  0.09792725  0.86678349  0.71682137  1.0
  B  B12  1  0.79824035  0.39882695  0.10222486  1.0
  B  B13  1  0.79824035  1.10117305  0.60222486  1.0
  B  B14  1  0.20175965  -0.10117305  0.39777514  1.0
  B  B15  1  0.20175965  0.60117305  0.89777514  1.0
  O  O16  1  0.95665670  0.00600426  0.36086770  1.0
  O  O17  1  0.95665670  0.49399574  0.86086770  1.0
  O  O18  1  0.04334330  0.50600426  0.13913230  1.0
  O  O19  1  0.04334330  0.99399574  0.63913230  1.0
  O  O20  1  0.87624310  -0.15192580  0.22981480  1.0
  O  O21  1  0.87624310  0.65192580  0.72981480  1.0
  O  O22  1  0.12375690  0.34807420  0.27018520  1.0
  O  O23  1  0.12375690  1.15192580  0.77018520  1.0
  O  O24  1  0.79036493  0.19659913  0.04308933  1.0
  O  O25  1  0.79036493  0.30340087  0.54308933  1.0
  O  O26  1  0.20963507  0.69659913  0.45691067  1.0
  O  O27  1  0.20963507  0.80340087  0.95691067  1.0
  O  O28  1  0.65646618  0.31470894  0.27501559  1.0
  O  O29  1  0.65646618  0.18529106  0.77501559  1.0
  O  O30  1  0.34353382  0.81470894  0.22498441  1.0
  O  O31  1  0.34353382  0.68529106  0.72498441  1.0
  O  O32  1  0.42195945  -0.00554542  0.37060564  1.0
  O  O33  1  0.42195945  0.50554542  0.87060564  1.0
  O  O34  1  0.57804055  0.49445458  0.12939436  1.0
  O  O35  1  0.57804055  1.00554542  0.62939436  1.0
