# generated using pymatgen
data_BaCr2(P2O7)2
_symmetry_space_group_name_H-M   'P 1'
_cell_length_a   7.93785983
_cell_length_b   6.25963820
_cell_length_c   6.21390006
_cell_angle_alpha   105.30161384
_cell_angle_beta   101.81812079
_cell_angle_gamma   96.56948419
_symmetry_Int_Tables_number   1
_chemical_formula_structural   BaCr2(P2O7)2
_chemical_formula_sum   'Ba1 Cr2 P4 O14'
_cell_volume   286.82103626
_cell_formula_units_Z   1
loop_
 _symmetry_equiv_pos_site_id
 _symmetry_equiv_pos_as_xyz
  1  'x, y, z'
loop_
 _atom_site_type_symbol
 _atom_site_label
 _atom_site_symmetry_multiplicity
 _atom_site_fract_x
 _atom_site_fract_y
 _atom_site_fract_z
 _atom_site_occupancy
  Ba  Ba0  1  0.00000000  0.00000000  0.00000000  1.0
  Cr  Cr1  1  -0.77208852  -0.31113342  -0.62602826  1.0
  Cr  Cr2  1  -0.22791148  -0.68886658  -0.37397174  1.0
  P  P3  1  -0.19366871  -0.53559266  -0.81757285  1.0
  P  P4  1  -0.80633129  -0.46440734  -0.18242715  1.0
  P  P5  1  -0.66443989  -0.75435265  -0.51660778  1.0
  P  P6  1  -0.33556011  -0.24564735  -0.48339222  1.0
  O  O7  1  -0.73134219  -0.31992997  -0.93189153  1.0
  O  O8  1  -0.26865781  -0.68007003  -0.06810847  1.0
  O  O9  1  -0.76286708  -0.63642601  -0.68334323  1.0
  O  O10  1  -0.23713292  -0.36357399  -0.31665677  1.0
  O  O11  1  -0.16457252  -0.69828906  -0.67048398  1.0
  O  O12  1  -0.83542748  -0.30171094  -0.32951602  1.0
  O  O13  1  -0.78256804  0.01509717  -0.57325207  1.0
  O  O14  1  -0.21743196  -1.01509717  -0.42674793  1.0
  O  O15  1  -0.47701090  -0.76366893  -0.52963784  1.0
  O  O16  1  -0.52298910  -0.23633107  -0.47036216  1.0
  O  O17  1  -0.65857146  -0.60821909  -0.25523399  1.0
  O  O18  1  -0.34142854  -0.39178091  -0.74476601  1.0
  O  O19  1  -0.97044229  -0.64006901  -0.21747033  1.0
  O  O20  1  -0.02955771  -0.35993099  -0.78252967  1.0
