# generated using pymatgen
data_ScSnPd
_symmetry_space_group_name_H-M   'P 1'
_cell_length_a   7.56331939
_cell_length_b   7.56331939
_cell_length_c   7.18687491
_cell_angle_alpha   90.00000000
_cell_angle_beta   90.00000000
_cell_angle_gamma   120.00000000
_symmetry_Int_Tables_number   1
_chemical_formula_structural   ScSnPd
_chemical_formula_sum   'Sc6 Sn6 Pd6'
_cell_volume   356.03738155
_cell_formula_units_Z   6
loop_
 _symmetry_equiv_pos_site_id
 _symmetry_equiv_pos_as_xyz
  1  'x, y, z'
loop_
 _atom_site_type_symbol
 _atom_site_label
 _atom_site_symmetry_multiplicity
 _atom_site_fract_x
 _atom_site_fract_y
 _atom_site_fract_z
 _atom_site_occupancy
  Sc  Sc0  1  0.98582913  0.60088460  0.25000000  1.0
  Sc  Sc1  1  0.60088460  0.98582913  0.75000000  1.0
  Sc  Sc2  1  0.61505547  0.01417087  0.25000000  1.0
  Sc  Sc3  1  0.39911540  0.38494453  0.25000000  1.0
  Sc  Sc4  1  0.01417087  0.61505547  0.75000000  1.0
  Sc  Sc5  1  0.38494453  0.39911540  0.75000000  1.0
  Sn  Sn6  1  0.72379155  0.72379155  0.50000000  1.0
  Sn  Sn7  1  0.72379155  0.72379155  0.00000000  1.0
  Sn  Sn8  1  -0.00000000  0.27620845  0.50000000  1.0
  Sn  Sn9  1  -0.00000000  0.27620845  0.00000000  1.0
  Sn  Sn10  1  0.27620845  0.00000000  0.50000000  1.0
  Sn  Sn11  1  0.27620845  0.00000000  0.00000000  1.0
  Pd  Pd12  1  0.33333333  0.66666667  0.46862392  1.0
  Pd  Pd13  1  0.33333333  0.66666667  0.03137608  1.0
  Pd  Pd14  1  0.66666667  0.33333333  0.96862392  1.0
  Pd  Pd15  1  0.66666667  0.33333333  0.53137608  1.0
  Pd  Pd16  1  0.00000000  0.00000000  0.25000000  1.0
  Pd  Pd17  1  0.00000000  0.00000000  0.75000000  1.0
