# generated using pymatgen
data_GdPO4
_symmetry_space_group_name_H-M   'P 1'
_cell_length_a   7.03491563
_cell_length_b   7.03491563
_cell_length_c   6.35394631
_cell_angle_alpha   90.00000000
_cell_angle_beta   90.00000000
_cell_angle_gamma   120.00000000
_symmetry_Int_Tables_number   1
_chemical_formula_structural   GdPO4
_chemical_formula_sum   'Gd3 P3 O12'
_cell_volume   272.32778814
_cell_formula_units_Z   3
loop_
 _symmetry_equiv_pos_site_id
 _symmetry_equiv_pos_as_xyz
  1  'x, y, z'
loop_
 _atom_site_type_symbol
 _atom_site_label
 _atom_site_symmetry_multiplicity
 _atom_site_fract_x
 _atom_site_fract_y
 _atom_site_fract_z
 _atom_site_occupancy
  Gd  Gd0  1  0.50000000  0.50000000  0.33333333  1.0
  Gd  Gd1  1  0.50000000  0.00000000  0.00000000  1.0
  Gd  Gd2  1  0.00000000  0.50000000  0.66666667  1.0
  P  P3  1  0.50000000  0.50000000  0.83333333  1.0
  P  P4  1  0.50000000  0.00000000  0.50000000  1.0
  P  P5  1  0.00000000  0.50000000  0.16666667  1.0
  O  O6  1  0.30518146  0.86096850  0.65115118  1.0
  O  O7  1  0.30518146  0.44421296  0.68218215  1.0
  O  O8  1  0.86096850  0.30518146  0.01551548  1.0
  O  O9  1  0.86096850  0.55578704  0.31781785  1.0
  O  O10  1  0.55578704  0.86096850  0.34884882  1.0
  O  O11  1  0.55578704  0.69481854  0.98448452  1.0
  O  O12  1  0.13903150  0.69481854  0.01551548  1.0
  O  O13  1  0.13903150  0.44421296  0.31781785  1.0
  O  O14  1  0.69481854  0.55578704  0.68218215  1.0
  O  O15  1  0.69481854  0.13903150  0.65115118  1.0
  O  O16  1  0.44421296  0.30518146  0.98448452  1.0
  O  O17  1  0.44421296  0.13903150  0.34884882  1.0
