# generated using pymatgen
data_Cs3HgCl5
_symmetry_space_group_name_H-M   'P 1'
_cell_length_a   9.19870646
_cell_length_b   10.90491602
_cell_length_c   13.94660868
_cell_angle_alpha   90.00000000
_cell_angle_beta   90.00000000
_cell_angle_gamma   90.00000000
_symmetry_Int_Tables_number   1
_chemical_formula_structural   Cs3HgCl5
_chemical_formula_sum   'Cs12 Hg4 Cl20'
_cell_volume   1398.99995683
_cell_formula_units_Z   4
loop_
 _symmetry_equiv_pos_site_id
 _symmetry_equiv_pos_as_xyz
  1  'x, y, z'
loop_
 _atom_site_type_symbol
 _atom_site_label
 _atom_site_symmetry_multiplicity
 _atom_site_fract_x
 _atom_site_fract_y
 _atom_site_fract_z
 _atom_site_occupancy
  Hg  Hg0  1  0.19908113  0.75000000  0.61575923  1.0
  Hg  Hg1  1  0.69908113  0.75000000  0.88424077  1.0
  Hg  Hg2  1  0.80091887  0.25000000  0.38424077  1.0
  Hg  Hg3  1  0.30091887  0.25000000  0.11575923  1.0
  Cs  Cs4  1  0.08886511  0.75000000  0.04497875  1.0
  Cs  Cs5  1  0.58886511  0.75000000  0.45502125  1.0
  Cs  Cs6  1  0.91113489  0.25000000  0.95502125  1.0
  Cs  Cs7  1  0.41113489  0.25000000  0.54497875  1.0
  Cs  Cs8  1  0.40782008  0.47245426  0.83322891  1.0
  Cs  Cs9  1  0.40782008  0.02754574  0.83322891  1.0
  Cs  Cs10  1  0.90782008  0.47245426  0.66677109  1.0
  Cs  Cs11  1  0.90782008  0.02754574  0.66677109  1.0
  Cs  Cs12  1  0.59217992  0.97245426  0.16677109  1.0
  Cs  Cs13  1  0.59217992  0.52754574  0.16677109  1.0
  Cs  Cs14  1  0.09217992  0.97245426  0.33322891  1.0
  Cs  Cs15  1  0.09217992  0.52754574  0.33322891  1.0
  Cl  Cl16  1  0.13083219  0.75000000  0.78954683  1.0
  Cl  Cl17  1  0.63083219  0.75000000  0.71045317  1.0
  Cl  Cl18  1  0.86916781  0.25000000  0.21045317  1.0
  Cl  Cl19  1  0.36916781  0.25000000  0.28954683  1.0
  Cl  Cl20  1  0.31276771  0.94922587  0.56687868  1.0
  Cl  Cl21  1  0.31276771  0.55077413  0.56687868  1.0
  Cl  Cl22  1  0.81276771  0.94922587  0.93312132  1.0
  Cl  Cl23  1  0.81276771  0.55077413  0.93312132  1.0
  Cl  Cl24  1  0.68723229  0.44922587  0.43312132  1.0
  Cl  Cl25  1  0.68723229  0.05077413  0.43312132  1.0
  Cl  Cl26  1  0.18723229  0.44922587  0.06687868  1.0
  Cl  Cl27  1  0.18723229  0.05077413  0.06687868  1.0
  Cl  Cl28  1  0.46468076  0.75000000  0.98669215  1.0
  Cl  Cl29  1  0.96468076  0.75000000  0.51330785  1.0
  Cl  Cl30  1  0.53531924  0.25000000  0.01330785  1.0
  Cl  Cl31  1  0.03531924  0.25000000  0.48669215  1.0
  Cl  Cl32  1  0.34390951  0.75000000  0.26548950  1.0
  Cl  Cl33  1  0.84390951  0.75000000  0.23451050  1.0
  Cl  Cl34  1  0.65609049  0.25000000  0.73451050  1.0
  Cl  Cl35  1  0.15609049  0.25000000  0.76548950  1.0
