# generated using pymatgen
data_SbF3
_symmetry_space_group_name_H-M   'P 1'
_cell_length_a   4.66063568
_cell_length_b   4.66063568
_cell_length_c   7.09869904
_cell_angle_alpha   90.00000000
_cell_angle_beta   90.00000000
_cell_angle_gamma   67.58608063
_symmetry_Int_Tables_number   1
_chemical_formula_structural   SbF3
_chemical_formula_sum   'Sb2 F6'
_cell_volume   142.54569761
_cell_formula_units_Z   2
loop_
 _symmetry_equiv_pos_site_id
 _symmetry_equiv_pos_as_xyz
  1  'x, y, z'
loop_
 _atom_site_type_symbol
 _atom_site_label
 _atom_site_symmetry_multiplicity
 _atom_site_fract_x
 _atom_site_fract_y
 _atom_site_fract_z
 _atom_site_occupancy
  Sb  Sb0  1  -0.12580643  1.56295460  0.25000000  1.0
  Sb  Sb1  1  -0.56295460  1.12580643  0.75000000  1.0
  F  F2  1  0.21668536  0.39134075  0.43992361  1.0
  F  F3  1  0.60865925  0.78331464  0.93992361  1.0
  F  F4  1  0.60865925  0.78331464  0.56007639  1.0
  F  F5  1  0.21668536  0.39134075  0.06007639  1.0
  F  F6  1  0.95003603  0.95316422  0.25000000  1.0
  F  F7  1  0.04683578  0.04996397  0.75000000  1.0
