# generated using pymatgen
data_MoC3S2Cl7O
_symmetry_space_group_name_H-M   'P 1'
_cell_length_a   8.05586670
_cell_length_b   10.56127109
_cell_length_c   9.56577655
_cell_angle_alpha   90.00000000
_cell_angle_beta   108.28125503
_cell_angle_gamma   90.00000000
_symmetry_Int_Tables_number   1
_chemical_formula_structural   MoC3S2Cl7O
_chemical_formula_sum   'Mo2 C6 S4 Cl14 O2'
_cell_volume   772.78118421
_cell_formula_units_Z   2
loop_
 _symmetry_equiv_pos_site_id
 _symmetry_equiv_pos_as_xyz
  1  'x, y, z'
loop_
 _atom_site_type_symbol
 _atom_site_label
 _atom_site_symmetry_multiplicity
 _atom_site_fract_x
 _atom_site_fract_y
 _atom_site_fract_z
 _atom_site_occupancy
  Mo  Mo0  1  0.01245571  0.73625032  0.51433028  1.0
  Mo  Mo1  1  0.01245571  0.26374968  0.01433028  1.0
  C  C2  1  0.57829040  0.72023152  0.01972577  1.0
  C  C3  1  0.57829040  0.27976848  0.51972577  1.0
  C  C4  1  0.50483821  0.82575813  0.06648294  1.0
  C  C5  1  0.50483821  0.17424187  0.56648294  1.0
  C  C6  1  0.36653660  0.79755211  0.12058273  1.0
  C  C7  1  0.36653660  0.20244789  0.62058273  1.0
  S  S8  1  0.49467451  0.57444679  0.03791322  1.0
  S  S9  1  0.49467451  0.42555321  0.53791322  1.0
  S  S10  1  0.30915694  0.64211009  0.12456916  1.0
  S  S11  1  0.30915694  0.35788991  0.62456916  1.0
  Cl  Cl12  1  0.98573831  0.56502873  0.35030312  1.0
  Cl  Cl13  1  0.98573831  0.43497127  0.85030312  1.0
  Cl  Cl14  1  0.74089538  0.72734768  0.94395515  1.0
  Cl  Cl15  1  0.74089538  0.27265232  0.44395515  1.0
  Cl  Cl16  1  0.71027535  0.71347434  0.47527432  1.0
  Cl  Cl17  1  0.71027535  0.28652566  0.97527432  1.0
  Cl  Cl18  1  0.57751301  0.97602627  0.05794560  1.0
  Cl  Cl19  1  0.57751301  0.02397373  0.55794560  1.0
  Cl  Cl20  1  0.30279953  0.33918730  0.12969961  1.0
  Cl  Cl21  1  0.30279953  0.66081270  0.62969961  1.0
  Cl  Cl22  1  0.25208364  0.90603716  0.18158629  1.0
  Cl  Cl23  1  0.25208364  0.09396284  0.68158629  1.0
  Cl  Cl24  1  0.03046309  0.81384920  0.75021973  1.0
  Cl  Cl25  1  0.03046309  0.18615080  0.25021973  1.0
  O  O26  1  1.03307932  0.86383477  0.41881208  1.0
  O  O27  1  1.03307932  0.13616523  0.91881208  1.0
