# generated using pymatgen
data_Li6WN4
_symmetry_space_group_name_H-M   'P 1'
_cell_length_a   6.68540432
_cell_length_b   6.68540432
_cell_length_c   4.92006370
_cell_angle_alpha   90.00000000
_cell_angle_beta   90.00000000
_cell_angle_gamma   90.00000000
_symmetry_Int_Tables_number   1
_chemical_formula_structural   Li6WN4
_chemical_formula_sum   'Li12 W2 N8'
_cell_volume   219.90043100
_cell_formula_units_Z   2
loop_
 _symmetry_equiv_pos_site_id
 _symmetry_equiv_pos_as_xyz
  1  'x, y, z'
loop_
 _atom_site_type_symbol
 _atom_site_label
 _atom_site_symmetry_multiplicity
 _atom_site_fract_x
 _atom_site_fract_y
 _atom_site_fract_z
 _atom_site_occupancy
  Li  Li0  1  0.00000000  0.50000000  0.58294893  1.0
  Li  Li1  1  0.50000000  0.00000000  0.91705107  1.0
  Li  Li2  1  0.50000000  0.00000000  0.41705107  1.0
  Li  Li3  1  0.00000000  0.50000000  0.08294893  1.0
  Li  Li4  1  0.21283923  0.21283923  0.50000000  1.0
  Li  Li5  1  0.78716077  0.78716077  0.50000000  1.0
  Li  Li6  1  0.71283923  0.71283923  0.00000000  1.0
  Li  Li7  1  0.28716077  0.28716077  0.00000000  1.0
  Li  Li8  1  0.78716077  0.21283923  0.50000000  1.0
  Li  Li9  1  0.21283923  0.78716077  0.50000000  1.0
  Li  Li10  1  0.28716077  0.71283923  0.00000000  1.0
  Li  Li11  1  0.71283923  0.28716077  0.00000000  1.0
  W  W12  1  0.50000000  0.50000000  0.50000000  1.0
  W  W13  1  0.00000000  0.00000000  0.00000000  1.0
  N  N14  1  0.25827684  0.50000000  0.29988894  1.0
  N  N15  1  0.74172316  0.50000000  0.29988894  1.0
  N  N16  1  0.75827684  0.00000000  0.20011106  1.0
  N  N17  1  0.24172316  0.00000000  0.20011106  1.0
  N  N18  1  0.50000000  0.25827684  0.70011106  1.0
  N  N19  1  0.50000000  0.74172316  0.70011106  1.0
  N  N20  1  0.00000000  0.75827684  0.79988894  1.0
  N  N21  1  0.00000000  0.24172316  0.79988894  1.0
