# generated using pymatgen
data_CsGa(SO4)2
_symmetry_space_group_name_H-M   'P 1'
_cell_length_a   5.02249658
_cell_length_b   5.02249658
_cell_length_c   8.94997405
_cell_angle_alpha   90.00000000
_cell_angle_beta   90.00000000
_cell_angle_gamma   120.00000000
_symmetry_Int_Tables_number   1
_chemical_formula_structural   CsGa(SO4)2
_chemical_formula_sum   'Cs1 Ga1 S2 O8'
_cell_volume   195.52023313
_cell_formula_units_Z   1
loop_
 _symmetry_equiv_pos_site_id
 _symmetry_equiv_pos_as_xyz
  1  'x, y, z'
loop_
 _atom_site_type_symbol
 _atom_site_label
 _atom_site_symmetry_multiplicity
 _atom_site_fract_x
 _atom_site_fract_y
 _atom_site_fract_z
 _atom_site_occupancy
  Cs  Cs0  1  0.00000000  0.00000000  0.50000000  1.0
  Ga  Ga1  1  -0.00000000  0.00000000  0.00000000  1.0
  S  S2  1  0.33333333  0.66666667  0.19339028  1.0
  S  S3  1  0.66666667  0.33333333  0.80660972  1.0
  O  O4  1  0.23592297  0.88702975  0.13887162  1.0
  O  O5  1  0.88702975  0.23592297  0.86112838  1.0
  O  O6  1  0.65110677  0.76407703  0.13887162  1.0
  O  O7  1  0.11297025  0.34889323  0.13887162  1.0
  O  O8  1  0.76407703  0.65110677  0.86112838  1.0
  O  O9  1  0.34889323  0.11297025  0.86112838  1.0
  O  O10  1  0.33333333  0.66666667  0.35732646  1.0
  O  O11  1  0.66666667  0.33333333  0.64267354  1.0
