# generated using pymatgen
data_Y11(AlGe4)2
_symmetry_space_group_name_H-M   'P 1'
_cell_length_a   11.27638821
_cell_length_b   11.27638821
_cell_length_c   11.27638821
_cell_angle_alpha   121.32829634
_cell_angle_beta   121.32829634
_cell_angle_gamma   87.71431949
_symmetry_Int_Tables_number   1
_chemical_formula_structural   Y11(AlGe4)2
_chemical_formula_sum   'Y22 Al4 Ge16'
_cell_volume   992.68551187
_cell_formula_units_Z   2
loop_
 _symmetry_equiv_pos_site_id
 _symmetry_equiv_pos_as_xyz
  1  'x, y, z'
loop_
 _atom_site_type_symbol
 _atom_site_label
 _atom_site_symmetry_multiplicity
 _atom_site_fract_x
 _atom_site_fract_y
 _atom_site_fract_z
 _atom_site_occupancy
  Y  Y0  1  0.43877517  0.69045928  0.74831589  1.0
  Y  Y1  1  1.05785661  0.30954072  0.74831589  1.0
  Y  Y2  1  0.94214339  0.69045928  1.25168411  1.0
  Y  Y3  1  0.56122483  0.30954072  0.25168411  1.0
  Y  Y4  1  0.69045928  0.43877517  0.74831589  1.0
  Y  Y5  1  0.30954072  1.05785661  0.74831589  1.0
  Y  Y6  1  0.69045928  0.94214339  1.25168411  1.0
  Y  Y7  1  0.30954072  0.56122483  0.25168411  1.0
  Y  Y8  1  0.56668750  0.89808894  0.66859856  1.0
  Y  Y9  1  0.77050961  0.10191106  0.66859856  1.0
  Y  Y10  1  1.22949039  0.89808894  1.33140144  1.0
  Y  Y11  1  0.43331250  0.10191106  0.33140144  1.0
  Y  Y12  1  0.89808894  0.56668750  0.66859856  1.0
  Y  Y13  1  0.10191106  0.77050961  0.66859856  1.0
  Y  Y14  1  0.89808894  1.22949039  1.33140144  1.0
  Y  Y15  1  0.10191106  0.43331250  0.33140144  1.0
  Y  Y16  1  0.67511902  0.67511902  1.35023803  1.0
  Y  Y17  1  0.32488098  0.67511902  1.00000000  1.0
  Y  Y18  1  0.67511902  0.32488098  1.00000000  1.0
  Y  Y19  1  0.32488098  0.32488098  0.64976197  1.0
  Y  Y20  1  0.83482855  0.83482855  1.00000000  1.0
  Y  Y21  1  0.16517145  0.16517145  -0.00000000  1.0
  Al  Al22  1  0.87823533  0.87823533  1.75647067  1.0
  Al  Al23  1  0.12176467  0.87823533  1.00000000  1.0
  Al  Al24  1  0.87823533  0.12176467  1.00000000  1.0
  Al  Al25  1  0.12176467  0.12176467  0.24352933  1.0
  Ge  Ge26  1  0.61875350  0.61875350  0.58834942  1.0
  Ge  Ge27  1  0.96959592  0.96959592  1.58834942  1.0
  Ge  Ge28  1  1.03040408  0.61875350  1.00000000  1.0
  Ge  Ge29  1  0.38124650  0.96959592  1.00000000  1.0
  Ge  Ge30  1  0.61875350  1.03040408  1.00000000  1.0
  Ge  Ge31  1  0.96959592  0.38124650  1.00000000  1.0
  Ge  Ge32  1  1.03040408  1.03040408  1.41165058  1.0
  Ge  Ge33  1  0.38124650  0.38124650  0.41165058  1.0
  Ge  Ge34  1  0.50000000  0.85497752  1.35497752  1.0
  Ge  Ge35  1  0.85497752  0.50000000  1.35497752  1.0
  Ge  Ge36  1  0.14502248  0.50000000  0.64502248  1.0
  Ge  Ge37  1  0.50000000  0.14502248  0.64502248  1.0
  Ge  Ge38  1  0.61699989  0.61699989  1.00000000  1.0
  Ge  Ge39  1  0.38300011  0.38300011  -0.00000000  1.0
  Ge  Ge40  1  0.25000000  0.75000000  0.50000000  1.0
  Ge  Ge41  1  0.75000000  0.25000000  0.50000000  1.0
