# generated using pymatgen
data_K2Mg5Sn3
_symmetry_space_group_name_H-M   'P 1'
_cell_length_a   12.32766469
_cell_length_b   12.32766469
_cell_length_c   12.32766469
_cell_angle_alpha   156.65137136
_cell_angle_beta   156.65137136
_cell_angle_gamma   33.25684164
_symmetry_Int_Tables_number   1
_chemical_formula_structural   K2Mg5Sn3
_chemical_formula_sum   'K2 Mg5 Sn3'
_cell_volume   294.00109368
_cell_formula_units_Z   1
loop_
 _symmetry_equiv_pos_site_id
 _symmetry_equiv_pos_as_xyz
  1  'x, y, z'
loop_
 _atom_site_type_symbol
 _atom_site_label
 _atom_site_symmetry_multiplicity
 _atom_site_fract_x
 _atom_site_fract_y
 _atom_site_fract_z
 _atom_site_occupancy
  K  K0  1  0.80222930  0.80222930  1.00000000  1.0
  K  K1  1  0.19777070  0.19777070  -0.00000000  1.0
  Mg  Mg2  1  0.42054559  0.92054559  0.50000000  1.0
  Mg  Mg3  1  0.92054559  0.42054559  0.50000000  1.0
  Mg  Mg4  1  0.57945441  0.07945441  0.50000000  1.0
  Mg  Mg5  1  0.07945441  0.57945441  0.50000000  1.0
  Mg  Mg6  1  0.50000000  0.50000000  1.00000000  1.0
  Sn  Sn7  1  0.00000000  0.00000000  0.00000000  1.0
  Sn  Sn8  1  0.35814818  0.35814818  -0.00000000  1.0
  Sn  Sn9  1  0.64185182  0.64185182  1.00000000  1.0
