# generated using pymatgen
data_Rb2GeF6
_symmetry_space_group_name_H-M   'P 1'
_cell_length_a   6.09553227
_cell_length_b   6.09553227
_cell_length_c   9.94976336
_cell_angle_alpha   90.00000000
_cell_angle_beta   90.00000000
_cell_angle_gamma   120.00000000
_symmetry_Int_Tables_number   1
_chemical_formula_structural   Rb2GeF6
_chemical_formula_sum   'Rb4 Ge2 F12'
_cell_volume   320.15969160
_cell_formula_units_Z   2
loop_
 _symmetry_equiv_pos_site_id
 _symmetry_equiv_pos_as_xyz
  1  'x, y, z'
loop_
 _atom_site_type_symbol
 _atom_site_label
 _atom_site_symmetry_multiplicity
 _atom_site_fract_x
 _atom_site_fract_y
 _atom_site_fract_z
 _atom_site_occupancy
  Rb  Rb0  1  0.33333333  0.66666667  0.26701927  1.0
  Rb  Rb1  1  0.66666667  0.33333333  0.76701927  1.0
  Rb  Rb2  1  -0.00000000  -0.00000000  -0.00970696  1.0
  Rb  Rb3  1  -0.00000000  -0.00000000  0.49029304  1.0
  Ge  Ge4  1  0.33333333  0.66666667  0.65203571  1.0
  Ge  Ge5  1  0.66666667  0.33333333  0.15203571  1.0
  F  F6  1  0.94912939  0.47456470  0.04382103  1.0
  F  F7  1  0.47456470  0.94912939  0.54382103  1.0
  F  F8  1  0.47456470  0.52543530  0.54382103  1.0
  F  F9  1  0.52543530  0.47456470  0.04382103  1.0
  F  F10  1  0.52543530  0.05087061  0.04382103  1.0
  F  F11  1  0.05087061  0.52543530  0.54382103  1.0
  F  F12  1  0.37783911  0.18891956  0.25472963  1.0
  F  F13  1  0.18891956  0.37783911  0.75472963  1.0
  F  F14  1  0.18891956  0.81108044  0.75472963  1.0
  F  F15  1  0.81108044  0.18891956  0.25472963  1.0
  F  F16  1  0.81108044  0.62216089  0.25472963  1.0
  F  F17  1  0.62216089  0.81108044  0.75472963  1.0
