# generated using pymatgen
data_CsPS3
_symmetry_space_group_name_H-M   'P 1'
_cell_length_a   7.71520370
_cell_length_b   7.71520370
_cell_length_c   7.71520370
_cell_angle_alpha   123.33875625
_cell_angle_beta   104.08337506
_cell_angle_gamma   101.95119162
_symmetry_Int_Tables_number   1
_chemical_formula_structural   CsPS3
_chemical_formula_sum   'Cs2 P2 S6'
_cell_volume   337.62103984
_cell_formula_units_Z   2
loop_
 _symmetry_equiv_pos_site_id
 _symmetry_equiv_pos_as_xyz
  1  'x, y, z'
loop_
 _atom_site_type_symbol
 _atom_site_label
 _atom_site_symmetry_multiplicity
 _atom_site_fract_x
 _atom_site_fract_y
 _atom_site_fract_z
 _atom_site_occupancy
  Cs  Cs0  1  0.24229320  0.50000000  0.74229320  1.0
  Cs  Cs1  1  0.75770680  0.50000000  1.25770680  1.0
  P  P2  1  0.84539583  0.84539583  1.00000000  1.0
  P  P3  1  1.15460417  1.15460417  1.00000000  1.0
  S  S4  1  0.74030819  0.50751798  0.76720980  1.0
  S  S5  1  1.25969181  1.02690161  0.76720980  1.0
  S  S6  1  0.74030819  0.97309839  1.23279020  1.0
  S  S7  1  1.25969181  1.49248202  1.23279020  1.0
  S  S8  1  0.83493538  -0.00000000  0.83493538  1.0
  S  S9  1  0.16506462  -0.00000000  0.16506462  1.0
