# generated using pymatgen
data_C
_symmetry_space_group_name_H-M   'P 1'
_cell_length_a   6.85860466
_cell_length_b   6.85860466
_cell_length_c   6.85860466
_cell_angle_alpha   92.45869892
_cell_angle_beta   92.45869892
_cell_angle_gamma   156.09259061
_symmetry_Int_Tables_number   1
_chemical_formula_structural   C
_chemical_formula_sum   C12
_cell_volume   127.91447283
_cell_formula_units_Z   12
loop_
 _symmetry_equiv_pos_site_id
 _symmetry_equiv_pos_as_xyz
  1  'x, y, z'
loop_
 _atom_site_type_symbol
 _atom_site_label
 _atom_site_symmetry_multiplicity
 _atom_site_fract_x
 _atom_site_fract_y
 _atom_site_fract_z
 _atom_site_occupancy
  C  C0  1  1.21484276  0.78515724  1.00000000  1.0
  C  C1  1  0.78515724  0.21484276  1.00000000  1.0
  C  C2  1  0.21484276  0.21484276  0.42968552  1.0
  C  C3  1  0.78515724  0.78515724  0.57031448  1.0
  C  C4  1  1.23818471  0.93629156  1.17447627  1.0
  C  C5  1  0.76181529  1.06370844  0.82552373  1.0
  C  C6  1  1.23818471  1.06370844  1.30189315  1.0
  C  C7  1  0.76181529  0.93629156  0.69810685  1.0
  C  C8  1  0.93629156  0.76181529  1.69810685  1.0
  C  C9  1  0.06370844  0.23818471  0.30189315  1.0
  C  C10  1  0.93629156  0.23818471  1.17447627  1.0
  C  C11  1  0.06370844  0.76181529  0.82552373  1.0
