# generated using pymatgen
data_CuAsPbO5
_symmetry_space_group_name_H-M   'P 1'
_cell_length_a   6.09688381
_cell_length_b   8.63573989
_cell_length_c   8.89263565
_cell_angle_alpha   90.00000000
_cell_angle_beta   90.00000000
_cell_angle_gamma   90.00000000
_symmetry_Int_Tables_number   1
_chemical_formula_structural   CuAsPbO5
_chemical_formula_sum   'Cu4 As4 Pb4 O20'
_cell_volume   468.20707351
_cell_formula_units_Z   4
loop_
 _symmetry_equiv_pos_site_id
 _symmetry_equiv_pos_as_xyz
  1  'x, y, z'
loop_
 _atom_site_type_symbol
 _atom_site_label
 _atom_site_symmetry_multiplicity
 _atom_site_fract_x
 _atom_site_fract_y
 _atom_site_fract_z
 _atom_site_occupancy
  Cu  Cu0  1  0.23897091  0.73793167  0.49305621  1.0
  Cu  Cu1  1  0.73897091  0.76206833  0.50694379  1.0
  Cu  Cu2  1  0.76102909  0.23793167  0.00694379  1.0
  Cu  Cu3  1  0.26102909  0.26206833  0.99305621  1.0
  As  As4  1  0.48052166  0.62510425  0.79172265  1.0
  As  As5  1  0.98052166  0.87489575  0.20827735  1.0
  As  As6  1  0.51947834  0.12510425  0.70827735  1.0
  As  As7  1  0.01947834  0.37489575  0.29172265  1.0
  Pb  Pb8  1  0.05673380  0.88294522  0.83726574  1.0
  Pb  Pb9  1  0.55673380  0.61705478  0.16273426  1.0
  Pb  Pb10  1  -0.05673380  0.38294522  0.66273426  1.0
  Pb  Pb11  1  0.44326620  0.11705478  0.33726574  1.0
  O  O12  1  0.47989347  0.95618418  0.61024575  1.0
  O  O13  1  -0.02010653  0.54381582  0.38975425  1.0
  O  O14  1  0.52010653  0.45618418  0.88975425  1.0
  O  O15  1  1.02010653  0.04381582  0.11024575  1.0
  O  O16  1  0.42657991  0.77278418  0.91888623  1.0
  O  O17  1  0.92657991  0.72721582  0.08111377  1.0
  O  O18  1  0.57342009  0.27278418  0.58111377  1.0
  O  O19  1  0.07342009  0.22721582  0.41888623  1.0
  O  O20  1  0.24524254  0.62017219  0.67448061  1.0
  O  O21  1  0.74524254  0.87982781  0.32551939  1.0
  O  O22  1  0.75475746  0.12017219  0.82551939  1.0
  O  O23  1  0.25475746  0.37982781  0.17448061  1.0
  O  O24  1  0.23103964  0.84673830  0.30707239  1.0
  O  O25  1  0.73103964  0.65326170  0.69292761  1.0
  O  O26  1  0.76896036  0.34673830  0.19292761  1.0
  O  O27  1  0.26896036  0.15326170  0.80707239  1.0
  O  O28  1  1.00071971  0.84630393  0.56500304  1.0
  O  O29  1  0.50071971  0.65369607  0.43499696  1.0
  O  O30  1  -0.00071971  0.34630393  0.93499696  1.0
  O  O31  1  0.49928029  0.15369607  0.06500304  1.0
