# generated using pymatgen
data_GdBrO
_symmetry_space_group_name_H-M   'P 1'
_cell_length_a   3.90366260
_cell_length_b   3.90366260
_cell_length_c   9.18640955
_cell_angle_alpha   90.00000000
_cell_angle_beta   90.00000000
_cell_angle_gamma   90.00000000
_symmetry_Int_Tables_number   1
_chemical_formula_structural   GdBrO
_chemical_formula_sum   'Gd2 Br2 O2'
_cell_volume   139.98785235
_cell_formula_units_Z   2
loop_
 _symmetry_equiv_pos_site_id
 _symmetry_equiv_pos_as_xyz
  1  'x, y, z'
loop_
 _atom_site_type_symbol
 _atom_site_label
 _atom_site_symmetry_multiplicity
 _atom_site_fract_x
 _atom_site_fract_y
 _atom_site_fract_z
 _atom_site_occupancy
  Gd  Gd0  1  0.50000000  0.00000000  0.12811741  1.0
  Gd  Gd1  1  0.00000000  0.50000000  0.87188259  1.0
  Br  Br2  1  0.50000000  0.00000000  0.69114803  1.0
  Br  Br3  1  0.00000000  0.50000000  0.30885197  1.0
  O  O4  1  0.00000000  0.00000000  0.00000000  1.0
  O  O5  1  0.50000000  0.50000000  0.00000000  1.0
