# generated using pymatgen
data_NaSr2CrF8
_symmetry_space_group_name_H-M   'P 1'
_cell_length_a   7.92950717
_cell_length_b   6.32290259
_cell_length_c   15.10695894
_cell_angle_alpha   90.00000000
_cell_angle_beta   112.79862360
_cell_angle_gamma   90.00000000
_symmetry_Int_Tables_number   1
_chemical_formula_structural   NaSr2CrF8
_chemical_formula_sum   'Na4 Sr8 Cr4 F32'
_cell_volume   698.24940929
_cell_formula_units_Z   4
loop_
 _symmetry_equiv_pos_site_id
 _symmetry_equiv_pos_as_xyz
  1  'x, y, z'
loop_
 _atom_site_type_symbol
 _atom_site_label
 _atom_site_symmetry_multiplicity
 _atom_site_fract_x
 _atom_site_fract_y
 _atom_site_fract_z
 _atom_site_occupancy
  Na  Na0  1  0.36545597  0.16593512  0.06096601  1.0
  Na  Na1  1  0.36545597  0.33406488  0.56096601  1.0
  Na  Na2  1  0.63454403  0.66593512  0.43903399  1.0
  Na  Na3  1  0.63454403  0.83406488  0.93903399  1.0
  Sr  Sr4  1  0.91578646  0.15181382  0.35607447  1.0
  Sr  Sr5  1  0.91578646  0.34818618  0.85607447  1.0
  Sr  Sr6  1  0.08421354  0.65181382  0.14392553  1.0
  Sr  Sr7  1  0.08421354  0.84818618  0.64392553  1.0
  Sr  Sr8  1  0.40324360  0.21260597  0.30240515  1.0
  Sr  Sr9  1  0.40324360  0.28739403  0.80240515  1.0
  Sr  Sr10  1  0.59675640  0.71260597  0.19759485  1.0
  Sr  Sr11  1  0.59675640  0.78739403  0.69759485  1.0
  Cr  Cr12  1  0.80743479  0.21858166  0.09730174  1.0
  Cr  Cr13  1  0.80743479  0.28141834  0.59730174  1.0
  Cr  Cr14  1  0.19256521  0.71858166  0.40269826  1.0
  Cr  Cr15  1  0.19256521  0.78141834  0.90269826  1.0
  F  F16  1  0.97212418  0.75803406  0.28549183  1.0
  F  F17  1  0.97212418  0.74196594  0.78549183  1.0
  F  F18  1  0.02787582  0.25803406  0.21450817  1.0
  F  F19  1  0.02787582  0.24196594  0.71450817  1.0
  F  F20  1  0.94427900  0.32083886  0.02694802  1.0
  F  F21  1  0.94427900  0.17916114  0.52694802  1.0
  F  F22  1  0.05572100  0.82083886  0.47305198  1.0
  F  F23  1  0.05572100  0.67916114  0.97305198  1.0
  F  F24  1  0.86026789  0.93122084  0.07893497  1.0
  F  F25  1  0.86026789  0.56877916  0.57893497  1.0
  F  F26  1  0.13973211  0.43122084  0.42106503  1.0
  F  F27  1  0.13973211  0.06877916  0.92106503  1.0
  F  F28  1  0.68166043  0.43501239  0.32527902  1.0
  F  F29  1  0.68166043  0.06498761  0.82527902  1.0
  F  F30  1  0.31833957  0.93501239  0.17472098  1.0
  F  F31  1  0.31833957  0.56498761  0.67472098  1.0
  F  F32  1  0.68123632  0.11223611  0.17655141  1.0
  F  F33  1  0.68123632  0.38776389  0.67655141  1.0
  F  F34  1  0.31876368  0.61223611  0.32344859  1.0
  F  F35  1  0.31876368  0.88776389  0.82344859  1.0
  F  F36  1  0.64749909  0.93901083  0.34288500  1.0
  F  F37  1  0.64749909  0.56098917  0.84288500  1.0
  F  F38  1  0.35250091  0.43901083  0.15711500  1.0
  F  F39  1  0.35250091  0.06098917  0.65711500  1.0
  F  F40  1  0.58212539  0.30179980  0.48546776  1.0
  F  F41  1  0.58212539  0.19820020  0.98546776  1.0
  F  F42  1  0.41787461  0.80179980  0.01453224  1.0
  F  F43  1  0.41787461  0.69820020  0.51453224  1.0
  F  F44  1  0.24551865  0.01090561  0.38639460  1.0
  F  F45  1  0.24551865  0.48909439  0.88639460  1.0
  F  F46  1  0.75448135  0.51090561  0.11360540  1.0
  F  F47  1  0.75448135  0.98909439  0.61360540  1.0
