# generated using pymatgen
data_Sc2CdS4
_symmetry_space_group_name_H-M   'P 1'
_cell_length_a   7.65333831
_cell_length_b   7.65333831
_cell_length_c   7.65333831
_cell_angle_alpha   60.00000000
_cell_angle_beta   60.00000000
_cell_angle_gamma   60.00000000
_symmetry_Int_Tables_number   1
_chemical_formula_structural   Sc2CdS4
_chemical_formula_sum   'Sc4 Cd2 S8'
_cell_volume   316.98428864
_cell_formula_units_Z   2
loop_
 _symmetry_equiv_pos_site_id
 _symmetry_equiv_pos_as_xyz
  1  'x, y, z'
loop_
 _atom_site_type_symbol
 _atom_site_label
 _atom_site_symmetry_multiplicity
 _atom_site_fract_x
 _atom_site_fract_y
 _atom_site_fract_z
 _atom_site_occupancy
  Sc  Sc0  1  1.12500000  -0.37500000  0.62500000  1.0
  Sc  Sc1  1  0.62500000  1.12500000  -0.37500000  1.0
  Sc  Sc2  1  0.62500000  0.62500000  0.12500000  1.0
  Sc  Sc3  1  0.62500000  0.62500000  -0.37500000  1.0
  Cd  Cd4  1  0.25000000  0.25000000  0.25000000  1.0
  Cd  Cd5  1  0.00000000  1.00000000  -0.00000000  1.0
  S  S6  1  -0.15691966  0.38563989  0.38563989  1.0
  S  S7  1  0.38563989  0.84308034  0.38563989  1.0
  S  S8  1  0.38563989  1.38563989  -0.15691966  1.0
  S  S9  1  0.38563989  0.38563989  0.38563989  1.0
  S  S10  1  0.40691966  0.86436011  -0.13563989  1.0
  S  S11  1  0.86436011  -0.59308034  0.86436011  1.0
  S  S12  1  0.86436011  0.86436011  -0.59308034  1.0
  S  S13  1  0.86436011  -0.13563989  0.86436011  1.0
