# generated using pymatgen
data_CaCO3
_symmetry_space_group_name_H-M   'P 1'
_cell_length_a   7.25714948
_cell_length_b   7.25714948
_cell_length_c   9.42276911
_cell_angle_alpha   68.05897329
_cell_angle_beta   111.94102671
_cell_angle_gamma   119.57340922
_symmetry_Int_Tables_number   1
_chemical_formula_structural   CaCO3
_chemical_formula_sum   'Ca6 C6 O18'
_cell_volume   389.17789754
_cell_formula_units_Z   6
loop_
 _symmetry_equiv_pos_site_id
 _symmetry_equiv_pos_as_xyz
  1  'x, y, z'
loop_
 _atom_site_type_symbol
 _atom_site_label
 _atom_site_symmetry_multiplicity
 _atom_site_fract_x
 _atom_site_fract_y
 _atom_site_fract_z
 _atom_site_occupancy
  Ca  Ca0  1  1.70229010  -0.15073690  0.50142715  1.0
  Ca  Ca1  1  1.15073690  0.29770990  1.00142715  1.0
  Ca  Ca2  1  0.84926310  0.70229010  -0.00142715  1.0
  Ca  Ca3  1  1.29770990  0.15073690  0.49857285  1.0
  Ca  Ca4  1  1.50000000  -0.00000000  -0.00000000  1.0
  Ca  Ca5  1  1.00000000  0.50000000  0.50000000  1.0
  C  C6  1  1.70715651  0.08892625  0.73321377  1.0
  C  C7  1  0.91107375  0.29284349  0.23321377  1.0
  C  C8  1  1.08892625  0.70715651  0.76678623  1.0
  C  C9  1  1.29284349  -0.08892625  0.26678623  1.0
  C  C10  1  1.44969416  0.44969416  0.75000000  1.0
  C  C11  1  0.55030584  0.55030584  0.25000000  1.0
  O  O12  1  1.84284628  0.04425530  0.86183682  1.0
  O  O13  1  0.95574470  0.15715372  0.36183682  1.0
  O  O14  1  1.04425530  0.84284628  0.63816318  1.0
  O  O15  1  1.15715372  -0.04425530  0.13816318  1.0
  O  O16  1  0.74311163  0.13951553  0.59564122  1.0
  O  O17  1  0.86048447  0.25688837  0.09564122  1.0
  O  O18  1  1.13951553  0.74311163  0.90435878  1.0
  O  O19  1  0.25688837  -0.13951553  0.40435878  1.0
  O  O20  1  1.53034920  0.08261364  0.74211094  1.0
  O  O21  1  0.91738636  0.46965080  0.24211094  1.0
  O  O22  1  1.08261364  0.53034920  0.75788906  1.0
  O  O23  1  1.46965080  -0.08261364  0.25788906  1.0
  O  O24  1  1.40874241  0.31788208  0.88374159  1.0
  O  O25  1  0.68211792  0.59125759  0.38374159  1.0
  O  O26  1  1.31788208  0.40874241  0.61625841  1.0
  O  O27  1  1.59125759  -0.31788208  0.11625841  1.0
  O  O28  1  0.62716827  -0.37283173  0.75000000  1.0
  O  O29  1  0.37283173  0.37283173  0.25000000  1.0
