# generated using pymatgen
data_TaPRu
_symmetry_space_group_name_H-M   'P 1'
_cell_length_a   6.31793215
_cell_length_b   3.73426496
_cell_length_c   7.19950439
_cell_angle_alpha   90.00000000
_cell_angle_beta   90.00000000
_cell_angle_gamma   90.00000000
_symmetry_Int_Tables_number   1
_chemical_formula_structural   TaPRu
_chemical_formula_sum   'Ta4 P4 Ru4'
_cell_volume   169.85670208
_cell_formula_units_Z   4
loop_
 _symmetry_equiv_pos_site_id
 _symmetry_equiv_pos_as_xyz
  1  'x, y, z'
loop_
 _atom_site_type_symbol
 _atom_site_label
 _atom_site_symmetry_multiplicity
 _atom_site_fract_x
 _atom_site_fract_y
 _atom_site_fract_z
 _atom_site_occupancy
  Ta  Ta0  1  0.97531144  0.75000000  0.67225153  1.0
  Ta  Ta1  1  0.47531144  0.75000000  0.82774847  1.0
  Ta  Ta2  1  0.02468856  0.25000000  0.32774847  1.0
  Ta  Ta3  1  0.52468856  0.25000000  0.17225153  1.0
  P  P4  1  0.73283955  0.75000000  0.37545566  1.0
  P  P5  1  0.23283955  0.75000000  0.12454434  1.0
  P  P6  1  0.26716045  0.25000000  0.62454434  1.0
  P  P7  1  0.76716045  0.25000000  0.87545566  1.0
  Ru  Ru8  1  0.85460778  0.75000000  0.06336008  1.0
  Ru  Ru9  1  0.35460778  0.75000000  0.43663992  1.0
  Ru  Ru10  1  0.14539222  0.25000000  0.93663992  1.0
  Ru  Ru11  1  0.64539222  0.25000000  0.56336008  1.0
