# generated using pymatgen
data_Ti3Si
_symmetry_space_group_name_H-M   'P 1'
_cell_length_a   10.15718988
_cell_length_b   10.15718988
_cell_length_c   5.06867831
_cell_angle_alpha   90.00000000
_cell_angle_beta   90.00000000
_cell_angle_gamma   90.00000000
_symmetry_Int_Tables_number   1
_chemical_formula_structural   Ti3Si
_chemical_formula_sum   'Ti24 Si8'
_cell_volume   522.92797022
_cell_formula_units_Z   8
loop_
 _symmetry_equiv_pos_site_id
 _symmetry_equiv_pos_as_xyz
  1  'x, y, z'
loop_
 _atom_site_type_symbol
 _atom_site_label
 _atom_site_symmetry_multiplicity
 _atom_site_fract_x
 _atom_site_fract_y
 _atom_site_fract_z
 _atom_site_occupancy
  Ti  Ti0  1  0.47183577  0.35875252  1.21826905  1.0
  Ti  Ti1  1  0.97183577  0.85875252  0.28173095  1.0
  Ti  Ti2  1  0.35875252  0.52816423  -0.21826905  1.0
  Ti  Ti3  1  0.85875252  0.02816423  0.71826905  1.0
  Ti  Ti4  1  0.52816423  0.64124748  1.21826905  1.0
  Ti  Ti5  1  0.02816423  0.14124748  0.28173095  1.0
  Ti  Ti6  1  0.64124748  0.47183577  -0.21826905  1.0
  Ti  Ti7  1  0.14124748  0.97183577  0.71826905  1.0
  Ti  Ti8  1  0.31793091  0.78266995  0.49575773  1.0
  Ti  Ti9  1  0.81793091  0.28266995  0.00424227  1.0
  Ti  Ti10  1  0.78266995  0.68206909  0.50424227  1.0
  Ti  Ti11  1  0.28266995  0.18206909  0.99575773  1.0
  Ti  Ti12  1  0.68206909  0.21733005  0.49575773  1.0
  Ti  Ti13  1  0.18206909  0.71733005  0.00424227  1.0
  Ti  Ti14  1  0.21733005  0.31793091  0.50424227  1.0
  Ti  Ti15  1  0.71733005  0.81793091  0.99575773  1.0
  Ti  Ti16  1  1.10725372  0.41853410  0.03125301  1.0
  Ti  Ti17  1  0.60725372  0.91853410  0.46874699  1.0
  Ti  Ti18  1  0.41853410  -0.10725372  0.96874699  1.0
  Ti  Ti19  1  0.91853410  0.39274628  0.53125301  1.0
  Ti  Ti20  1  -0.10725372  0.58146590  0.03125301  1.0
  Ti  Ti21  1  0.39274628  0.08146590  0.46874699  1.0
  Ti  Ti22  1  0.58146590  1.10725372  0.96874699  1.0
  Ti  Ti23  1  0.08146590  0.60725372  0.53125301  1.0
  Si  Si24  1  0.45802644  0.29462061  0.71191232  1.0
  Si  Si25  1  0.95802644  0.79462061  -0.21191232  1.0
  Si  Si26  1  0.29462061  0.54197356  0.28808768  1.0
  Si  Si27  1  0.79462061  0.04197356  1.21191232  1.0
  Si  Si28  1  0.54197356  0.70537939  0.71191232  1.0
  Si  Si29  1  0.04197356  0.20537939  -0.21191232  1.0
  Si  Si30  1  0.70537939  0.45802644  0.28808768  1.0
  Si  Si31  1  0.20537939  0.95802644  1.21191232  1.0
