# generated using pymatgen
data_NaHO
_symmetry_space_group_name_H-M   'P 1'
_cell_length_a   3.19904544
_cell_length_b   6.05164537
_cell_length_c   6.27435541
_cell_angle_alpha   90.00000000
_cell_angle_beta   90.00000000
_cell_angle_gamma   90.00000000
_symmetry_Int_Tables_number   1
_chemical_formula_structural   NaHO
_chemical_formula_sum   'Na4 H4 O4'
_cell_volume   121.46831166
_cell_formula_units_Z   4
loop_
 _symmetry_equiv_pos_site_id
 _symmetry_equiv_pos_as_xyz
  1  'x, y, z'
loop_
 _atom_site_type_symbol
 _atom_site_label
 _atom_site_symmetry_multiplicity
 _atom_site_fract_x
 _atom_site_fract_y
 _atom_site_fract_z
 _atom_site_occupancy
  Na  Na0  1  0.84403707  0.75000000  0.00000000  1.0
  Na  Na1  1  0.84403707  0.75000000  0.50000000  1.0
  Na  Na2  1  0.15596293  0.25000000  0.00000000  1.0
  Na  Na3  1  0.15596293  0.25000000  0.50000000  1.0
  H  H4  1  0.54176275  1.01617258  0.75000000  1.0
  H  H5  1  0.54176275  0.48382742  0.25000000  1.0
  H  H6  1  0.45823725  0.51617258  0.75000000  1.0
  H  H7  1  0.45823725  -0.01617258  0.25000000  1.0
  O  O8  1  0.71242248  0.42737564  0.75000000  1.0
  O  O9  1  0.71242248  0.07262436  0.25000000  1.0
  O  O10  1  0.28757752  0.92737564  0.75000000  1.0
  O  O11  1  0.28757752  0.57262436  0.25000000  1.0
