# generated using pymatgen
data_Mg2B2AsIr5
_symmetry_space_group_name_H-M   'P 1'
_cell_length_a   9.47795947
_cell_length_b   9.47795947
_cell_length_c   2.97230435
_cell_angle_alpha   90.00000000
_cell_angle_beta   90.00000000
_cell_angle_gamma   90.00000000
_symmetry_Int_Tables_number   1
_chemical_formula_structural   Mg2B2AsIr5
_chemical_formula_sum   'Mg4 B4 As2 Ir10'
_cell_volume   267.00719883
_cell_formula_units_Z   2
loop_
 _symmetry_equiv_pos_site_id
 _symmetry_equiv_pos_as_xyz
  1  'x, y, z'
loop_
 _atom_site_type_symbol
 _atom_site_label
 _atom_site_symmetry_multiplicity
 _atom_site_fract_x
 _atom_site_fract_y
 _atom_site_fract_z
 _atom_site_occupancy
  Mg  Mg0  1  0.32484654  0.82484654  0.00000000  1.0
  Mg  Mg1  1  0.67515346  0.17515346  0.00000000  1.0
  Mg  Mg2  1  0.17515346  0.32484654  0.00000000  1.0
  Mg  Mg3  1  0.82484654  0.67515346  0.00000000  1.0
  B  B4  1  0.12481596  0.62481596  0.00000000  1.0
  B  B5  1  0.87518404  0.37518404  0.00000000  1.0
  B  B6  1  0.37518404  0.12481596  0.00000000  1.0
  B  B7  1  0.62481596  0.87518404  0.00000000  1.0
  As  As8  1  0.50000000  0.50000000  0.00000000  1.0
  As  As9  1  0.00000000  0.00000000  0.00000000  1.0
  Ir  Ir10  1  0.00000000  0.50000000  0.50000000  1.0
  Ir  Ir11  1  0.50000000  0.00000000  0.50000000  1.0
  Ir  Ir12  1  0.57297057  0.71628890  0.50000000  1.0
  Ir  Ir13  1  0.42702943  0.28371110  0.50000000  1.0
  Ir  Ir14  1  0.92702943  0.21628890  0.50000000  1.0
  Ir  Ir15  1  0.07297057  0.78371110  0.50000000  1.0
  Ir  Ir16  1  0.71628890  0.42702943  0.50000000  1.0
  Ir  Ir17  1  0.28371110  0.57297057  0.50000000  1.0
  Ir  Ir18  1  0.21628890  0.07297057  0.50000000  1.0
  Ir  Ir19  1  0.78371110  0.92702943  0.50000000  1.0
