# generated using pymatgen
data_RbScCr2O8
_symmetry_space_group_name_H-M   'P 1'
_cell_length_a   5.62521434
_cell_length_b   5.62521435
_cell_length_c   7.92980920
_cell_angle_alpha   90.00000000
_cell_angle_beta   90.00000000
_cell_angle_gamma   120.00000000
_symmetry_Int_Tables_number   1
_chemical_formula_structural   RbScCr2O8
_chemical_formula_sum   'Rb1 Sc1 Cr2 O8'
_cell_volume   217.30590150
_cell_formula_units_Z   1
loop_
 _symmetry_equiv_pos_site_id
 _symmetry_equiv_pos_as_xyz
  1  'x, y, z'
loop_
 _atom_site_type_symbol
 _atom_site_label
 _atom_site_symmetry_multiplicity
 _atom_site_fract_x
 _atom_site_fract_y
 _atom_site_fract_z
 _atom_site_occupancy
  Rb  Rb0  1  0.00000000  0.00000000  0.50000000  1.0
  Sc  Sc1  1  0.00000000  0.00000000  0.00000000  1.0
  Cr  Cr2  1  0.33333333  0.66666667  0.22770735  1.0
  Cr  Cr3  1  0.66666667  0.33333333  0.77229265  1.0
  O  O4  1  0.17151475  0.82843207  0.16016942  1.0
  O  O5  1  0.82843207  0.17151475  0.83983058  1.0
  O  O6  1  0.65691732  0.82848525  0.16016942  1.0
  O  O7  1  0.17156793  0.34308268  0.16016942  1.0
  O  O8  1  0.82848525  0.65691732  0.83983058  1.0
  O  O9  1  0.34308268  0.17156793  0.83983058  1.0
  O  O10  1  0.33333333  0.66666667  0.43088340  1.0
  O  O11  1  0.66666667  0.33333333  0.56911660  1.0
