# generated using pymatgen
data_TiAl3
_symmetry_space_group_name_H-M   'P 1'
_cell_length_a   17.13963867
_cell_length_b   17.13963867
_cell_length_c   17.13963867
_cell_angle_alpha   167.02248366
_cell_angle_beta   167.02248366
_cell_angle_gamma   18.39264428
_symmetry_Int_Tables_number   1
_chemical_formula_structural   TiAl3
_chemical_formula_sum   'Ti4 Al12'
_cell_volume   253.90252559
_cell_formula_units_Z   4
loop_
 _symmetry_equiv_pos_site_id
 _symmetry_equiv_pos_as_xyz
  1  'x, y, z'
loop_
 _atom_site_type_symbol
 _atom_site_label
 _atom_site_symmetry_multiplicity
 _atom_site_fract_x
 _atom_site_fract_y
 _atom_site_fract_z
 _atom_site_occupancy
  Ti  Ti0  1  0.94179590  0.94179590  1.00000000  1.0
  Ti  Ti1  1  0.05820410  0.05820410  -0.00000000  1.0
  Ti  Ti2  1  0.68641843  0.68641843  1.00000000  1.0
  Ti  Ti3  1  0.31358157  0.31358157  -0.00000000  1.0
  Al  Al4  1  0.81267270  0.81267270  1.00000000  1.0
  Al  Al5  1  0.18732730  0.18732730  -0.00000000  1.0
  Al  Al6  1  0.25000000  0.75000000  0.50000000  1.0
  Al  Al7  1  0.75000000  0.25000000  0.50000000  1.0
  Al  Al8  1  0.56226010  0.56226010  1.00000000  1.0
  Al  Al9  1  0.43773990  0.43773990  -0.00000000  1.0
  Al  Al10  1  0.50000000  -0.00000000  0.50000000  1.0
  Al  Al11  1  0.00000000  0.50000000  0.50000000  1.0
  Al  Al12  1  0.37635049  0.87635049  0.50000000  1.0
  Al  Al13  1  0.62364951  0.12364951  0.50000000  1.0
  Al  Al14  1  0.87635049  0.37635049  0.50000000  1.0
  Al  Al15  1  0.12364951  0.62364951  0.50000000  1.0
