# generated using pymatgen
data_PRu
_symmetry_space_group_name_H-M   'P 1'
_cell_length_a   5.54842161
_cell_length_b   3.15717275
_cell_length_c   6.20118230
_cell_angle_alpha   90.00000000
_cell_angle_beta   90.00000000
_cell_angle_gamma   90.00000000
_symmetry_Int_Tables_number   1
_chemical_formula_structural   PRu
_chemical_formula_sum   'P4 Ru4'
_cell_volume   108.62812889
_cell_formula_units_Z   4
loop_
 _symmetry_equiv_pos_site_id
 _symmetry_equiv_pos_as_xyz
  1  'x, y, z'
loop_
 _atom_site_type_symbol
 _atom_site_label
 _atom_site_symmetry_multiplicity
 _atom_site_fract_x
 _atom_site_fract_y
 _atom_site_fract_z
 _atom_site_occupancy
  P  P0  1  0.80930202  0.75000000  0.56417924  1.0
  P  P1  1  0.30930202  0.75000000  0.93582076  1.0
  P  P2  1  0.19069798  0.25000000  0.43582076  1.0
  P  P3  1  0.69069798  0.25000000  0.06417924  1.0
  Ru  Ru4  1  1.00856720  0.75000000  0.20627108  1.0
  Ru  Ru5  1  0.50856720  0.75000000  0.29372892  1.0
  Ru  Ru6  1  -0.00856720  0.25000000  0.79372892  1.0
  Ru  Ru7  1  0.49143280  0.25000000  0.70627108  1.0
