# generated using pymatgen
data_La4MnS6O
_symmetry_space_group_name_H-M   'P 1'
_cell_length_a   9.52048845
_cell_length_b   9.52048845
_cell_length_c   6.87600494
_cell_angle_alpha   90.00000000
_cell_angle_beta   90.00000000
_cell_angle_gamma   120.00000000
_symmetry_Int_Tables_number   1
_chemical_formula_structural   La4MnS6O
_chemical_formula_sum   'La8 Mn2 S12 O2'
_cell_volume   539.74082996
_cell_formula_units_Z   2
loop_
 _symmetry_equiv_pos_site_id
 _symmetry_equiv_pos_as_xyz
  1  'x, y, z'
loop_
 _atom_site_type_symbol
 _atom_site_label
 _atom_site_symmetry_multiplicity
 _atom_site_fract_x
 _atom_site_fract_y
 _atom_site_fract_z
 _atom_site_occupancy
  La  La0  1  0.39444751  0.19722375  0.18325539  1.0
  La  La1  1  0.19722375  0.39444751  0.68325539  1.0
  La  La2  1  0.19722375  0.80277625  0.68325539  1.0
  La  La3  1  0.80277625  0.19722375  0.18325539  1.0
  La  La4  1  0.80277625  0.60555249  0.18325539  1.0
  La  La5  1  0.60555249  0.80277625  0.68325539  1.0
  La  La6  1  0.33333333  0.66666667  0.21484953  1.0
  La  La7  1  0.66666667  0.33333333  0.71484953  1.0
  Mn  Mn8  1  0.00000000  0.00000000  -0.01798625  1.0
  Mn  Mn9  1  0.00000000  0.00000000  0.48201375  1.0
  S  S10  1  0.75300292  0.87650146  0.28560991  1.0
  S  S11  1  0.87650146  0.75300292  0.78560991  1.0
  S  S12  1  0.87650146  0.12349854  0.78560991  1.0
  S  S13  1  0.12349854  0.87650146  0.28560991  1.0
  S  S14  1  0.12349854  0.24699708  0.28560991  1.0
  S  S15  1  0.24699708  0.12349854  0.78560991  1.0
  S  S16  1  0.93838446  0.46919223  0.46103565  1.0
  S  S17  1  0.46919223  0.93838446  0.96103565  1.0
  S  S18  1  0.46919223  0.53080777  0.96103565  1.0
  S  S19  1  0.53080777  0.46919223  0.46103565  1.0
  S  S20  1  0.53080777  0.06161554  0.46103565  1.0
  S  S21  1  0.06161554  0.53080777  0.96103565  1.0
  O  O22  1  0.33333333  0.66666667  0.56083384  1.0
  O  O23  1  0.66666667  0.33333333  0.06083384  1.0
