# generated using pymatgen
data_Ca3VN3
_symmetry_space_group_name_H-M   'P 1'
_cell_length_a   6.71443297
_cell_length_b   6.71443297
_cell_length_c   5.07901101
_cell_angle_alpha   90.00000000
_cell_angle_beta   90.00000000
_cell_angle_gamma   101.33056326
_symmetry_Int_Tables_number   1
_chemical_formula_structural   Ca3VN3
_chemical_formula_sum   'Ca6 V2 N6'
_cell_volume   224.51732794
_cell_formula_units_Z   2
loop_
 _symmetry_equiv_pos_site_id
 _symmetry_equiv_pos_as_xyz
  1  'x, y, z'
loop_
 _atom_site_type_symbol
 _atom_site_label
 _atom_site_symmetry_multiplicity
 _atom_site_fract_x
 _atom_site_fract_y
 _atom_site_fract_z
 _atom_site_occupancy
  Ca  Ca0  1  0.09784595  0.32787537  0.25000000  1.0
  Ca  Ca1  1  -0.67212463  1.09784595  0.75000000  1.0
  Ca  Ca2  1  0.67212463  0.90215405  0.25000000  1.0
  Ca  Ca3  1  -0.09784595  1.67212463  0.75000000  1.0
  Ca  Ca4  1  -0.39144086  1.39144086  0.25000000  1.0
  Ca  Ca5  1  0.39144086  0.60855914  0.75000000  1.0
  V  V6  1  0.19756582  0.80243418  0.25000000  1.0
  V  V7  1  -0.19756582  1.19756582  0.75000000  1.0
  N  N8  1  -0.06865604  1.68361441  0.25000000  1.0
  N  N9  1  0.68361441  0.93134396  0.75000000  1.0
  N  N10  1  -0.68361441  1.06865604  0.25000000  1.0
  N  N11  1  0.06865604  0.31638559  0.75000000  1.0
  N  N12  1  0.37265127  0.62734873  0.25000000  1.0
  N  N13  1  -0.37265127  1.37265127  0.75000000  1.0
