# generated using pymatgen
data_Rb3NaPbO4
_symmetry_space_group_name_H-M   'P 1'
_cell_length_a   11.17728535
_cell_length_b   6.80112840
_cell_length_c   11.25171008
_cell_angle_alpha   90.00000000
_cell_angle_beta   111.42188716
_cell_angle_gamma   90.00000000
_symmetry_Int_Tables_number   1
_chemical_formula_structural   Rb3NaPbO4
_chemical_formula_sum   'Rb12 Na4 Pb4 O16'
_cell_volume   796.24461854
_cell_formula_units_Z   4
loop_
 _symmetry_equiv_pos_site_id
 _symmetry_equiv_pos_as_xyz
  1  'x, y, z'
loop_
 _atom_site_type_symbol
 _atom_site_label
 _atom_site_symmetry_multiplicity
 _atom_site_fract_x
 _atom_site_fract_y
 _atom_site_fract_z
 _atom_site_occupancy
  Rb  Rb0  1  0.95105955  0.40387575  0.30917207  1.0
  Rb  Rb1  1  0.95105955  0.09612425  0.80917207  1.0
  Rb  Rb2  1  0.04894045  0.90387575  0.19082793  1.0
  Rb  Rb3  1  0.04894045  0.59612425  0.69082793  1.0
  Rb  Rb4  1  0.82115749  0.88163540  0.39773147  1.0
  Rb  Rb5  1  0.82115749  0.61836460  0.89773147  1.0
  Rb  Rb6  1  0.17884251  0.38163540  0.10226853  1.0
  Rb  Rb7  1  0.17884251  0.11836460  0.60226853  1.0
  Rb  Rb8  1  0.53756837  0.17736594  0.17700801  1.0
  Rb  Rb9  1  0.53756837  0.32263406  0.67700801  1.0
  Rb  Rb10  1  0.46243163  0.67736594  0.32299199  1.0
  Rb  Rb11  1  0.46243163  0.82263406  0.82299199  1.0
  Na  Na12  1  0.37673068  0.12438407  0.39120549  1.0
  Na  Na13  1  0.37673068  0.37561593  0.89120549  1.0
  Na  Na14  1  0.62326932  0.62438407  0.10879451  1.0
  Na  Na15  1  0.62326932  0.87561593  0.60879451  1.0
  Pb  Pb16  1  0.74108522  0.36117564  0.49408540  1.0
  Pb  Pb17  1  0.74108522  0.13882436  0.99408540  1.0
  Pb  Pb18  1  0.25891478  0.86117564  0.00591460  1.0
  Pb  Pb19  1  0.25891478  0.63882436  0.50591460  1.0
  O  O20  1  0.92818115  0.25867271  0.05321148  1.0
  O  O21  1  0.92818115  0.24132729  0.55321148  1.0
  O  O22  1  0.07181885  0.75867271  0.44678852  1.0
  O  O23  1  0.07181885  0.74132729  0.94678852  1.0
  O  O24  1  0.73081684  0.92528870  0.12553490  1.0
  O  O25  1  0.73081684  0.57471130  0.62553490  1.0
  O  O26  1  0.26918316  0.42528870  0.37446510  1.0
  O  O27  1  0.26918316  0.07471130  0.87446510  1.0
  O  O28  1  0.70063529  0.50152395  0.31488550  1.0
  O  O29  1  0.70063529  -0.00152395  0.81488550  1.0
  O  O30  1  0.29936471  1.00152395  0.18511450  1.0
  O  O31  1  0.29936471  0.49847605  0.68511450  1.0
  O  O32  1  0.60644056  0.12737118  0.45854811  1.0
  O  O33  1  0.60644056  0.37262882  0.95854811  1.0
  O  O34  1  0.39355944  0.62737118  0.04145189  1.0
  O  O35  1  0.39355944  0.87262882  0.54145189  1.0
