# generated using pymatgen
data_TaP4(SCl)5
_symmetry_space_group_name_H-M   'P 1'
_cell_length_a   13.58837632
_cell_length_b   10.72983554
_cell_length_c   7.18704809
_cell_angle_alpha   77.93858941
_cell_angle_beta   75.24728916
_cell_angle_gamma   74.51822244
_symmetry_Int_Tables_number   1
_chemical_formula_structural   TaP4(SCl)5
_chemical_formula_sum   'Ta2 P8 S10 Cl10'
_cell_volume   965.32655403
_cell_formula_units_Z   2
loop_
 _symmetry_equiv_pos_site_id
 _symmetry_equiv_pos_as_xyz
  1  'x, y, z'
loop_
 _atom_site_type_symbol
 _atom_site_label
 _atom_site_symmetry_multiplicity
 _atom_site_fract_x
 _atom_site_fract_y
 _atom_site_fract_z
 _atom_site_occupancy
  Ta  Ta0  1  0.83312849  -0.73062596  -0.26443001  1.0
  Ta  Ta1  1  0.16687151  -0.26937404  0.26443001  1.0
  P  P2  1  0.51168664  -0.20775200  0.33658097  1.0
  P  P3  1  0.48831336  -0.79224800  -0.33658097  1.0
  P  P4  1  0.68575136  -0.44257477  -0.60817682  1.0
  P  P5  1  0.31424864  -0.55742523  0.60817682  1.0
  P  P6  1  0.58562511  -0.30344216  -0.39834659  1.0
  P  P7  1  0.41437489  -0.69655784  0.39834659  1.0
  P  P8  1  0.75759616  -0.15864594  -0.71511722  1.0
  P  P9  1  0.24240384  -0.84135406  0.71511722  1.0
  S  S10  1  0.73022433  -0.63840328  -0.55724220  1.0
  S  S11  1  0.26977567  -0.36159672  0.55724220  1.0
  S  S12  1  0.56662313  -0.39660793  0.23485065  1.0
  S  S13  1  0.43337687  -0.60339207  -0.23485065  1.0
  S  S14  1  0.61844588  -0.09035463  0.17212265  1.0
  S  S15  1  0.38155412  -0.90964537  -0.17212265  1.0
  S  S16  1  0.81364039  -0.35976868  -0.75789189  1.0
  S  S17  1  0.18635961  -0.64023132  0.75789189  1.0
  S  S18  1  0.68498661  -0.18439148  -0.40848740  1.0
  S  S19  1  0.31501339  -0.81560852  0.40848740  1.0
  Cl  Cl20  1  0.91928759  -0.82799197  -0.01709979  1.0
  Cl  Cl21  1  0.08071241  -0.17200803  0.01709979  1.0
  Cl  Cl22  1  -0.01364791  -0.71349012  0.50402057  1.0
  Cl  Cl23  1  1.01364791  -0.28650988  -0.50402057  1.0
  Cl  Cl24  1  0.80782327  -0.51291497  -0.22141528  1.0
  Cl  Cl25  1  0.19217673  -0.48708503  0.22141528  1.0
  Cl  Cl26  1  0.66677840  -0.73412651  -0.05681289  1.0
  Cl  Cl27  1  0.33322160  -0.26587349  0.05681289  1.0
  Cl  Cl28  1  0.82874458  -0.92096697  -0.37037944  1.0
  Cl  Cl29  1  0.17125542  -0.07903303  0.37037944  1.0
