# generated using pymatgen
data_ZnS
_symmetry_space_group_name_H-M   'P 1'
_cell_length_a   3.85009960
_cell_length_b   3.85009960
_cell_length_c   75.47898445
_cell_angle_alpha   90.00000000
_cell_angle_beta   90.00000000
_cell_angle_gamma   120.00000000
_symmetry_Int_Tables_number   1
_chemical_formula_structural   ZnS
_chemical_formula_sum   'Zn24 S24'
_cell_volume   968.94830896
_cell_formula_units_Z   24
loop_
 _symmetry_equiv_pos_site_id
 _symmetry_equiv_pos_as_xyz
  1  'x, y, z'
loop_
 _atom_site_type_symbol
 _atom_site_label
 _atom_site_symmetry_multiplicity
 _atom_site_fract_x
 _atom_site_fract_y
 _atom_site_fract_z
 _atom_site_occupancy
  Zn  Zn0  1  0.00000000  0.00000000  0.04167391  1.0
  Zn  Zn1  1  0.00000000  0.00000000  0.16667320  1.0
  Zn  Zn2  1  0.00000000  0.00000000  0.29167371  1.0
  Zn  Zn3  1  0.00000000  0.00000000  0.41667409  1.0
  Zn  Zn4  1  0.00000000  0.00000000  0.54167329  1.0
  Zn  Zn5  1  0.00000000  0.00000000  0.66667300  1.0
  Zn  Zn6  1  0.00000000  0.00000000  0.79167337  1.0
  Zn  Zn7  1  0.00000000  0.00000000  0.91667387  1.0
  Zn  Zn8  1  0.66666667  0.33333333  0.12501152  1.0
  Zn  Zn9  1  0.66666667  0.33333333  0.25000673  1.0
  Zn  Zn10  1  0.66666667  0.33333333  0.37500618  1.0
  Zn  Zn11  1  0.66666667  0.33333333  0.50000566  1.0
  Zn  Zn12  1  0.66666667  0.33333333  0.62500638  1.0
  Zn  Zn13  1  0.66666667  0.33333333  0.75000700  1.0
  Zn  Zn14  1  0.66666667  0.33333333  0.87497524  1.0
  Zn  Zn15  1  0.66666667  0.33333333  0.95836303  1.0
  Zn  Zn16  1  0.33333333  0.66666667  -0.00001984  1.0
  Zn  Zn17  1  0.33333333  0.66666667  0.08336724  1.0
  Zn  Zn18  1  0.33333333  0.66666667  0.20833932  1.0
  Zn  Zn19  1  0.33333333  0.66666667  0.33333924  1.0
  Zn  Zn20  1  0.33333333  0.66666667  0.45833994  1.0
  Zn  Zn21  1  0.33333333  0.66666667  0.58334021  1.0
  Zn  Zn22  1  0.33333333  0.66666667  0.70833978  1.0
  Zn  Zn23  1  0.33333333  0.66666667  0.83333495  1.0
  S  S24  1  0.00000000  0.00000000  0.01038865  1.0
  S  S25  1  0.00000000  0.00000000  0.13542756  1.0
  S  S26  1  0.00000000  0.00000000  0.26042641  1.0
  S  S27  1  0.00000000  0.00000000  0.38542701  1.0
  S  S28  1  0.00000000  0.00000000  0.51042619  1.0
  S  S29  1  0.00000000  0.00000000  0.63542578  1.0
  S  S30  1  0.00000000  0.00000000  0.76042645  1.0
  S  S31  1  0.00000000  0.00000000  0.88538716  1.0
  S  S32  1  0.66666667  0.33333333  0.09377285  1.0
  S  S33  1  0.66666667  0.33333333  0.21876111  1.0
  S  S34  1  0.66666667  0.33333333  0.34376065  1.0
  S  S35  1  0.66666667  0.33333333  0.46875997  1.0
  S  S36  1  0.66666667  0.33333333  0.59376067  1.0
  S  S37  1  0.66666667  0.33333333  0.71876141  1.0
  S  S38  1  0.66666667  0.33333333  0.84374716  1.0
  S  S39  1  0.66666667  0.33333333  0.92713402  1.0
  S  S40  1  0.33333333  0.66666667  0.05213608  1.0
  S  S41  1  0.33333333  0.66666667  0.17709371  1.0
  S  S42  1  0.33333333  0.66666667  0.30209330  1.0
  S  S43  1  0.33333333  0.66666667  0.42709393  1.0
  S  S44  1  0.33333333  0.66666667  0.55209438  1.0
  S  S45  1  0.33333333  0.66666667  0.67709392  1.0
  S  S46  1  0.33333333  0.66666667  0.80209167  1.0
  S  S47  1  0.33333333  0.66666667  0.96875893  1.0
