# generated using pymatgen
data_Mg3Ir
_symmetry_space_group_name_H-M   'P 1'
_cell_length_a   7.90794991
_cell_length_b   7.90794991
_cell_length_c   8.25102231
_cell_angle_alpha   90.00000000
_cell_angle_beta   90.00000000
_cell_angle_gamma   120.00000000
_symmetry_Int_Tables_number   1
_chemical_formula_structural   Mg3Ir
_chemical_formula_sum   'Mg18 Ir6'
_cell_volume   446.85457878
_cell_formula_units_Z   6
loop_
 _symmetry_equiv_pos_site_id
 _symmetry_equiv_pos_as_xyz
  1  'x, y, z'
loop_
 _atom_site_type_symbol
 _atom_site_label
 _atom_site_symmetry_multiplicity
 _atom_site_fract_x
 _atom_site_fract_y
 _atom_site_fract_z
 _atom_site_occupancy
  Mg  Mg0  1  0.62801393  0.62801393  0.37965353  1.0
  Mg  Mg1  1  0.62801393  0.00000000  0.87965353  1.0
  Mg  Mg2  1  -0.00000000  0.62801393  0.87965353  1.0
  Mg  Mg3  1  0.00000000  0.37198607  0.37965353  1.0
  Mg  Mg4  1  0.37198607  0.37198607  0.87965353  1.0
  Mg  Mg5  1  0.37198607  0.00000000  0.37965353  1.0
  Mg  Mg6  1  0.28645627  0.28645627  0.22073300  1.0
  Mg  Mg7  1  0.28645627  0.00000000  0.72073300  1.0
  Mg  Mg8  1  -0.00000000  0.28645627  0.72073300  1.0
  Mg  Mg9  1  0.00000000  0.71354373  0.22073300  1.0
  Mg  Mg10  1  0.71354373  0.71354373  0.72073300  1.0
  Mg  Mg11  1  0.71354373  0.00000000  0.22073300  1.0
  Mg  Mg12  1  0.33333333  0.66666667  0.09428141  1.0
  Mg  Mg13  1  0.33333333  0.66666667  0.59428141  1.0
  Mg  Mg14  1  0.66666667  0.33333333  0.09428141  1.0
  Mg  Mg15  1  0.66666667  0.33333333  0.59428141  1.0
  Mg  Mg16  1  0.00000000  0.00000000  -0.01655108  1.0
  Mg  Mg17  1  0.00000000  0.00000000  0.48344892  1.0
  Ir  Ir18  1  0.67204856  0.67204856  0.05064289  1.0
  Ir  Ir19  1  0.67204856  0.00000000  0.55064289  1.0
  Ir  Ir20  1  0.00000000  0.67204856  0.55064289  1.0
  Ir  Ir21  1  -0.00000000  0.32795144  0.05064289  1.0
  Ir  Ir22  1  0.32795144  0.32795144  0.55064289  1.0
  Ir  Ir23  1  0.32795144  0.00000000  0.05064289  1.0
