# generated using pymatgen
data_Cs2NaCr(CN)6
_symmetry_space_group_name_H-M   'P 1'
_cell_length_a   7.69812112
_cell_length_b   8.02002073
_cell_length_c   13.42923270
_cell_angle_alpha   90.00000000
_cell_angle_beta   124.32965119
_cell_angle_gamma   90.00000000
_symmetry_Int_Tables_number   1
_chemical_formula_structural   Cs2NaCr(CN)6
_chemical_formula_sum   'Cs4 Na2 Cr2 C12 N12'
_cell_volume   684.68333122
_cell_formula_units_Z   2
loop_
 _symmetry_equiv_pos_site_id
 _symmetry_equiv_pos_as_xyz
  1  'x, y, z'
loop_
 _atom_site_type_symbol
 _atom_site_label
 _atom_site_symmetry_multiplicity
 _atom_site_fract_x
 _atom_site_fract_y
 _atom_site_fract_z
 _atom_site_occupancy
  Cs  Cs0  1  0.73260181  0.05728524  0.24964031  1.0
  Cs  Cs1  1  0.73260181  0.44271476  0.74964031  1.0
  Cs  Cs2  1  0.26739819  0.55728524  0.25035969  1.0
  Cs  Cs3  1  0.26739819  0.94271476  0.75035969  1.0
  Na  Na4  1  0.50000000  0.50000000  0.00000000  1.0
  Na  Na5  1  0.50000000  0.00000000  0.50000000  1.0
  Cr  Cr6  1  0.00000000  0.50000000  0.50000000  1.0
  Cr  Cr7  1  0.00000000  0.00000000  0.00000000  1.0
  C  C8  1  0.87863536  0.48686593  0.32042631  1.0
  C  C9  1  0.87863536  0.01313407  0.82042631  1.0
  C  C10  1  0.12136464  0.98686593  0.17957369  1.0
  C  C11  1  0.12136464  0.51313407  0.67957369  1.0
  C  C12  1  0.76029371  0.35354641  0.47341141  1.0
  C  C13  1  0.76029371  0.14645359  0.97341141  1.0
  C  C14  1  0.23970629  0.85354641  0.02658859  1.0
  C  C15  1  0.23970629  0.64645359  0.52658859  1.0
  C  C16  1  0.17742331  0.29187527  0.53185063  1.0
  C  C17  1  0.17742331  0.20812473  0.03185063  1.0
  C  C18  1  0.82257669  0.79187527  0.96814937  1.0
  C  C19  1  0.82257669  0.70812473  0.46814937  1.0
  N  N20  1  0.71851002  0.82678082  0.44836871  1.0
  N  N21  1  0.71851002  0.67321918  0.94836871  1.0
  N  N22  1  0.28148998  0.32678082  0.05163129  1.0
  N  N23  1  0.28148998  0.17321918  0.55163129  1.0
  N  N24  1  0.80700298  0.47730125  0.21693415  1.0
  N  N25  1  0.80700298  0.02269875  0.71693415  1.0
  N  N26  1  0.19299702  0.97730125  0.28306585  1.0
  N  N27  1  0.19299702  0.52269875  0.78306585  1.0
  N  N28  1  0.62245830  0.26857345  0.45728154  1.0
  N  N29  1  0.62245830  0.23142655  0.95728154  1.0
  N  N30  1  0.37754170  0.76857345  0.04271846  1.0
  N  N31  1  0.37754170  0.73142655  0.54271846  1.0
