# generated using pymatgen
data_Na5Nd4Si4O17
_symmetry_space_group_name_H-M   'P 1'
_cell_length_a   8.85266924
_cell_length_b   8.85266924
_cell_length_c   8.85266924
_cell_angle_alpha   95.67740576
_cell_angle_beta   95.67740576
_cell_angle_gamma   143.33545492
_symmetry_Int_Tables_number   1
_chemical_formula_structural   Na5Nd4Si4O17
_chemical_formula_sum   'Na5 Nd4 Si4 O17'
_cell_volume   393.25178451
_cell_formula_units_Z   1
loop_
 _symmetry_equiv_pos_site_id
 _symmetry_equiv_pos_as_xyz
  1  'x, y, z'
loop_
 _atom_site_type_symbol
 _atom_site_label
 _atom_site_symmetry_multiplicity
 _atom_site_fract_x
 _atom_site_fract_y
 _atom_site_fract_z
 _atom_site_occupancy
  O  O0  1  0.86297285  1.36179717  1.27901057  1.0
  O  O1  1  0.41603773  0.13702715  0.49882433  1.0
  O  O2  1  1.08278660  0.58396227  0.72098943  1.0
  O  O3  1  0.63820283  0.91721340  1.50117567  1.0
  O  O4  1  0.72246743  0.69535833  0.55855335  1.0
  O  O5  1  0.83608592  0.27753257  0.97289090  1.0
  O  O6  1  1.13680498  1.16391408  1.44144665  1.0
  O  O7  1  0.30464167  0.86319502  1.02710910  1.0
  O  O8  1  1.52186040  1.70517835  1.74602178  1.0
  O  O9  1  1.22416138  1.47813960  1.18331795  1.0
  O  O10  1  0.95915657  0.77583862  0.25397822  1.0
  O  O11  1  1.29482165  1.04084343  0.81668205  1.0
  O  O12  1  0.40717277  0.26909724  0.23741718  1.0
  O  O13  1  0.83024440  0.59282723  0.86192447  1.0
  O  O14  1  1.03168007  1.16975560  1.76258282  1.0
  O  O15  1  0.73090276  0.96831993  1.13807553  1.0
  O  O16  1  0.50000000  0.50000000  0.00000000  1.0
  Nd  Nd17  1  0.41346806  0.34907355  0.71189310  1.0
  Nd  Nd18  1  1.29842504  0.58653194  0.93560550  1.0
  Nd  Nd19  1  0.63718046  0.70157496  1.28810690  1.0
  Nd  Nd20  1  0.65092645  1.36281954  1.06439450  1.0
  Na  Na21  1  0.87746350  0.57309205  0.48571267  1.0
  Na  Na22  1  0.60824917  0.12253650  0.69562854  1.0
  Na  Na23  1  1.08737937  1.39175083  1.51428733  1.0
  Na  Na24  1  0.42690795  0.91262063  1.30437146  1.0
  Na  Na25  1  0.00000000  0.00000000  0.00000000  1.0
  Si  Si26  1  1.73457092  1.88135877  1.64220348  1.0
  Si  Si27  1  0.90763256  1.26542908  1.14678785  1.0
  Si  Si28  1  1.23915528  1.09236744  0.35779652  1.0
  Si  Si29  1  1.11864123  0.76084472  0.85321215  1.0
