# generated using pymatgen
data_LaHO
_symmetry_space_group_name_H-M   'P 1'
_cell_length_a   8.09744002
_cell_length_b   8.09744002
_cell_length_c   5.72603491
_cell_angle_alpha   90.00000000
_cell_angle_beta   90.00000000
_cell_angle_gamma   90.00000000
_symmetry_Int_Tables_number   1
_chemical_formula_structural   LaHO
_chemical_formula_sum   'La8 H8 O8'
_cell_volume   375.44772016
_cell_formula_units_Z   8
loop_
 _symmetry_equiv_pos_site_id
 _symmetry_equiv_pos_as_xyz
  1  'x, y, z'
loop_
 _atom_site_type_symbol
 _atom_site_label
 _atom_site_symmetry_multiplicity
 _atom_site_fract_x
 _atom_site_fract_y
 _atom_site_fract_z
 _atom_site_occupancy
  La  La0  1  0.00000000  0.00000000  0.00000000  1.0
  La  La1  1  0.50000000  0.50000000  0.00000000  1.0
  La  La2  1  0.00000000  0.50000000  0.05746722  1.0
  La  La3  1  0.50000000  0.00000000  0.94253278  1.0
  La  La4  1  0.75000000  0.25000000  0.50000000  1.0
  La  La5  1  0.25000000  0.25000000  0.50000000  1.0
  La  La6  1  0.75000000  0.75000000  0.50000000  1.0
  La  La7  1  0.25000000  0.75000000  0.50000000  1.0
  H  H8  1  0.23062852  0.50000000  0.75693518  1.0
  H  H9  1  0.76937148  0.50000000  0.75693518  1.0
  H  H10  1  0.00000000  0.73062852  0.75693518  1.0
  H  H11  1  0.00000000  0.26937148  0.75693518  1.0
  H  H12  1  0.26937148  0.00000000  0.24306482  1.0
  H  H13  1  0.73062852  0.00000000  0.24306482  1.0
  H  H14  1  0.50000000  0.76937148  0.24306482  1.0
  H  H15  1  0.50000000  0.23062852  0.24306482  1.0
  O  O16  1  0.26409076  0.50000000  0.25880755  1.0
  O  O17  1  0.73590924  0.50000000  0.25880755  1.0
  O  O18  1  0.00000000  0.76409076  0.25880755  1.0
  O  O19  1  0.00000000  0.23590924  0.25880755  1.0
  O  O20  1  0.23590924  0.00000000  0.74119245  1.0
  O  O21  1  0.76409076  0.00000000  0.74119245  1.0
  O  O22  1  0.50000000  0.73590924  0.74119245  1.0
  O  O23  1  0.50000000  0.26409076  0.74119245  1.0
