# generated using pymatgen
data_Si2Ag4SO4
_symmetry_space_group_name_H-M   'P 1'
_cell_length_a   12.38661101
_cell_length_b   12.38661101
_cell_length_c   12.38661101
_cell_angle_alpha   140.64952486
_cell_angle_beta   140.64952486
_cell_angle_gamma   56.86840301
_symmetry_Int_Tables_number   1
_chemical_formula_structural   Si2Ag4SO4
_chemical_formula_sum   'Si8 Ag16 S4 O16'
_cell_volume   757.77899630
_cell_formula_units_Z   4
loop_
 _symmetry_equiv_pos_site_id
 _symmetry_equiv_pos_as_xyz
  1  'x, y, z'
loop_
 _atom_site_type_symbol
 _atom_site_label
 _atom_site_symmetry_multiplicity
 _atom_site_fract_x
 _atom_site_fract_y
 _atom_site_fract_z
 _atom_site_occupancy
  Si  Si0  1  1.23829699  0.58467362  0.65362337  1.0
  Si  Si1  1  0.81894974  0.66532638  1.15362337  1.0
  Si  Si2  1  0.93105026  0.58467362  0.34637663  1.0
  Si  Si3  1  0.51170301  0.66532638  0.84637663  1.0
  Si  Si4  1  0.41532638  0.06894974  0.65362337  1.0
  Si  Si5  1  0.33467362  0.48829699  0.15362337  1.0
  Si  Si6  1  0.41532638  0.76170301  1.34637663  1.0
  Si  Si7  1  0.33467362  1.18105026  0.84637663  1.0
  Ag  Ag8  1  0.17439777  1.00552481  0.83112704  1.0
  Ag  Ag9  1  0.57560223  0.90672928  1.33112704  1.0
  Ag  Ag10  1  0.65672928  -0.17439777  0.83112704  1.0
  Ag  Ag11  1  0.75552481  0.42439777  0.33112704  1.0
  Ag  Ag12  1  -0.00552481  -0.17439777  0.16887296  1.0
  Ag  Ag13  1  1.09327072  0.42439777  0.66887296  1.0
  Ag  Ag14  1  0.17439777  0.34327072  0.16887296  1.0
  Ag  Ag15  1  0.57560223  0.24447519  0.66887296  1.0
  Ag  Ag16  1  0.97618424  0.23828165  0.73790259  1.0
  Ag  Ag17  1  0.24962093  0.01171835  0.23790259  1.0
  Ag  Ag18  1  0.50037907  0.23828165  0.26209741  1.0
  Ag  Ag19  1  0.77381576  0.01171835  0.76209741  1.0
  Ag  Ag20  1  0.76171835  0.49962093  0.73790259  1.0
  Ag  Ag21  1  0.98828165  1.22618424  1.23790259  1.0
  Ag  Ag22  1  0.76171835  1.02381576  1.26209741  1.0
  Ag  Ag23  1  0.98828165  0.75037907  0.76209741  1.0
  S  S24  1  0.37500000  0.12500000  0.25000000  1.0
  S  S25  1  0.87500000  0.12500000  0.75000000  1.0
  S  S26  1  0.87500000  1.12500000  1.25000000  1.0
  S  S27  1  0.87500000  0.62500000  0.75000000  1.0
  O  O28  1  1.26332935  0.52080936  0.74251998  1.0
  O  O29  1  0.97171062  0.72919064  1.24251998  1.0
  O  O30  1  0.77828938  0.52080936  0.25748002  1.0
  O  O31  1  0.48667065  0.72919064  0.75748002  1.0
  O  O32  1  0.47919064  0.22171062  0.74251998  1.0
  O  O33  1  0.27080936  0.51332935  0.24251998  1.0
  O  O34  1  0.47919064  0.73667065  1.25748002  1.0
  O  O35  1  0.27080936  1.02828938  0.75748002  1.0
  O  O36  1  0.26745087  -0.09026876  0.35771963  1.0
  O  O37  1  1.19798840  0.34026876  0.85771963  1.0
  O  O38  1  0.55201160  -0.09026876  0.64228037  1.0
  O  O39  1  0.48254913  0.34026876  0.14228037  1.0
  O  O40  1  1.09026876  1.44798840  1.35771963  1.0
  O  O41  1  0.65973124  0.51745087  0.85771963  1.0
  O  O42  1  1.09026876  0.73254913  0.64228037  1.0
  O  O43  1  0.65973124  0.80201160  1.14228037  1.0
