# generated using pymatgen
data_Sc2B4Ru5
_symmetry_space_group_name_H-M   'P 1'
_cell_length_a   8.53259521
_cell_length_b   2.99565969
_cell_length_c   10.05072458
_cell_angle_alpha   90.00000000
_cell_angle_beta   90.00255618
_cell_angle_gamma   90.00000000
_symmetry_Int_Tables_number   1
_chemical_formula_structural   Sc2B4Ru5
_chemical_formula_sum   'Sc4 B8 Ru10'
_cell_volume   256.90407373
_cell_formula_units_Z   2
loop_
 _symmetry_equiv_pos_site_id
 _symmetry_equiv_pos_as_xyz
  1  'x, y, z'
loop_
 _atom_site_type_symbol
 _atom_site_label
 _atom_site_symmetry_multiplicity
 _atom_site_fract_x
 _atom_site_fract_y
 _atom_site_fract_z
 _atom_site_occupancy
  Sc  Sc0  1  0.84200923  0.50000000  0.18068144  1.0
  Sc  Sc1  1  0.15799077  0.50000000  0.81931856  1.0
  Sc  Sc2  1  0.65798414  0.50000000  0.68068261  1.0
  Sc  Sc3  1  0.34201586  0.50000000  0.31931739  1.0
  B  B4  1  0.64722138  0.50000000  0.39815653  1.0
  B  B5  1  0.35277862  0.50000000  0.60184347  1.0
  B  B6  1  0.96463360  0.50000000  0.58833427  1.0
  B  B7  1  0.03536640  0.50000000  0.41166573  1.0
  B  B8  1  0.85277388  0.50000000  0.89816807  1.0
  B  B9  1  0.14722612  0.50000000  0.10183193  1.0
  B  B10  1  0.46461929  0.50000000  0.91167858  1.0
  B  B11  1  0.53538071  0.50000000  0.08832142  1.0
  Ru  Ru12  1  0.90465195  0.00000000  0.73778932  1.0
  Ru  Ru13  1  0.09534805  0.00000000  0.26221068  1.0
  Ru  Ru14  1  0.83899132  0.00000000  0.45199794  1.0
  Ru  Ru15  1  0.16100868  0.00000000  0.54800206  1.0
  Ru  Ru16  1  0.66103494  0.00000000  0.95199845  1.0
  Ru  Ru17  1  0.33896506  0.00000000  0.04800155  1.0
  Ru  Ru18  1  0.40465264  0.00000000  0.76221371  1.0
  Ru  Ru19  1  0.59534736  0.00000000  0.23778629  1.0
  Ru  Ru20  1  0.50000000  0.00000000  0.50000000  1.0
  Ru  Ru21  1  0.00000000  0.00000000  0.00000000  1.0
