# generated using pymatgen
data_Gd4Ni
_symmetry_space_group_name_H-M   'P 1'
_cell_length_a   7.61977903
_cell_length_b   7.61977903
_cell_length_c   7.61977903
_cell_angle_alpha   60.00000000
_cell_angle_beta   60.00000000
_cell_angle_gamma   60.00000000
_symmetry_Int_Tables_number   1
_chemical_formula_structural   Gd4Ni
_chemical_formula_sum   'Gd8 Ni2'
_cell_volume   312.83269386
_cell_formula_units_Z   2
loop_
 _symmetry_equiv_pos_site_id
 _symmetry_equiv_pos_as_xyz
  1  'x, y, z'
loop_
 _atom_site_type_symbol
 _atom_site_label
 _atom_site_symmetry_multiplicity
 _atom_site_fract_x
 _atom_site_fract_y
 _atom_site_fract_z
 _atom_site_occupancy
  Gd  Gd0  1  -0.11354796  0.88645204  0.34064387  1.0
  Gd  Gd1  1  0.88645204  -0.65935613  0.88645204  1.0
  Gd  Gd2  1  0.36354796  0.36354796  0.36354796  1.0
  Gd  Gd3  1  -0.09064387  0.36354796  0.36354796  1.0
  Gd  Gd4  1  -0.65935613  0.88645204  0.88645204  1.0
  Gd  Gd5  1  0.88645204  -0.11354796  0.88645204  1.0
  Gd  Gd6  1  0.36354796  -0.09064387  0.36354796  1.0
  Gd  Gd7  1  0.36354796  0.36354796  -0.09064387  1.0
  Ni  Ni8  1  0.50000000  0.50000000  -0.50000000  1.0
  Ni  Ni9  1  0.75000000  -0.25000000  0.75000000  1.0
