# generated using pymatgen
data_VZnC2N3F5
_symmetry_space_group_name_H-M   'P 1'
_cell_length_a   7.72148347
_cell_length_b   7.72148347
_cell_length_c   7.72148347
_cell_angle_alpha   121.98894438
_cell_angle_beta   109.64556966
_cell_angle_gamma   97.70332316
_symmetry_Int_Tables_number   1
_chemical_formula_structural   VZnC2N3F5
_chemical_formula_sum   'V2 Zn2 C4 N6 F10'
_cell_volume   338.48967794
_cell_formula_units_Z   2
loop_
 _symmetry_equiv_pos_site_id
 _symmetry_equiv_pos_as_xyz
  1  'x, y, z'
loop_
 _atom_site_type_symbol
 _atom_site_label
 _atom_site_symmetry_multiplicity
 _atom_site_fract_x
 _atom_site_fract_y
 _atom_site_fract_z
 _atom_site_occupancy
  V  V0  1  1.00000000  1.00000000  0.50000000  1.0
  V  V1  1  1.00000000  1.50000000  1.00000000  1.0
  Zn  Zn2  1  1.00000000  1.00000000  1.00000000  1.0
  Zn  Zn3  1  0.50000000  -0.00000000  0.50000000  1.0
  F  F4  1  1.04347929  0.29347929  0.75000000  1.0
  F  F5  1  0.95652071  0.70652071  1.25000000  1.0
  F  F6  1  1.02073466  0.91850432  0.68766903  1.0
  F  F7  1  1.26916471  1.08149568  0.60223034  1.0
  F  F8  1  0.97926534  1.66693437  0.89776966  1.0
  F  F9  1  0.73083529  1.33306563  0.81233097  1.0
  F  F10  1  0.97926534  1.08149568  0.31233097  1.0
  F  F11  1  0.73083529  0.91850432  0.39776966  1.0
  F  F12  1  1.02073466  1.33306563  1.10223034  1.0
  F  F13  1  1.26916471  1.66693437  1.18766903  1.0
  N  N14  1  1.29838780  1.12880658  1.16958122  1.0
  N  N15  1  1.54077463  0.87119342  0.66958122  1.0
  N  N16  1  1.70161220  0.87119342  0.83041878  1.0
  N  N17  1  1.45922537  1.12880658  1.33041878  1.0
  N  N18  1  1.58936960  1.33936960  1.25000000  1.0
  N  N19  1  1.41063040  0.66063040  0.75000000  1.0
  C  C20  1  1.39284819  1.25602935  1.13681884  1.0
  C  C21  1  1.38078949  0.74397065  0.63681884  1.0
  C  C22  1  1.60715181  0.74397065  0.86318116  1.0
  C  C23  1  1.61921051  1.25602935  1.36318116  1.0
