# generated using pymatgen
data_Co2Mo4N
_symmetry_space_group_name_H-M   'P 1'
_cell_length_a   7.93881305
_cell_length_b   7.93881305
_cell_length_c   7.93881305
_cell_angle_alpha   60.00000000
_cell_angle_beta   60.00000000
_cell_angle_gamma   60.00000000
_symmetry_Int_Tables_number   1
_chemical_formula_structural   Co2Mo4N
_chemical_formula_sum   'Co8 Mo16 N4'
_cell_volume   353.79502957
_cell_formula_units_Z   4
loop_
 _symmetry_equiv_pos_site_id
 _symmetry_equiv_pos_as_xyz
  1  'x, y, z'
loop_
 _atom_site_type_symbol
 _atom_site_label
 _atom_site_symmetry_multiplicity
 _atom_site_fract_x
 _atom_site_fract_y
 _atom_site_fract_z
 _atom_site_occupancy
  Co  Co0  1  0.00445044  1.33184985  0.33184985  1.0
  Co  Co1  1  0.33184985  1.00445044  0.33184985  1.0
  Co  Co2  1  0.33184985  1.33184985  0.00445044  1.0
  Co  Co3  1  0.33184985  1.33184985  0.33184985  1.0
  Co  Co4  1  -0.75445044  0.91815015  0.91815015  1.0
  Co  Co5  1  0.91815015  -0.75445044  0.91815015  1.0
  Co  Co6  1  0.91815015  0.91815015  -0.75445044  1.0
  Co  Co7  1  0.91815015  0.91815015  0.91815015  1.0
  Mo  Mo8  1  0.62500000  1.12500000  0.12500000  1.0
  Mo  Mo9  1  0.12500000  1.62500000  0.12500000  1.0
  Mo  Mo10  1  0.12500000  0.12500000  1.62500000  1.0
  Mo  Mo11  1  0.12500000  0.12500000  0.12500000  1.0
  Mo  Mo12  1  0.68924355  0.68924355  -0.68924355  1.0
  Mo  Mo13  1  0.31075645  1.31075645  -0.31075645  1.0
  Mo  Mo14  1  0.68924355  -0.68924355  0.68924355  1.0
  Mo  Mo15  1  0.31075645  -0.31075645  0.31075645  1.0
  Mo  Mo16  1  -0.68924355  0.68924355  0.68924355  1.0
  Mo  Mo17  1  -0.31075645  0.31075645  0.31075645  1.0
  Mo  Mo18  1  -0.43924355  0.56075645  0.93924355  1.0
  Mo  Mo19  1  0.93924355  0.93924355  -0.43924355  1.0
  Mo  Mo20  1  0.56075645  0.93924355  0.56075645  1.0
  Mo  Mo21  1  0.93924355  0.56075645  0.93924355  1.0
  Mo  Mo22  1  0.93924355  0.56075645  -0.43924355  1.0
  Mo  Mo23  1  0.56075645  0.93924355  -0.06075645  1.0
  N  N24  1  1.12500000  0.62500000  0.62500000  1.0
  N  N25  1  0.62500000  1.12500000  -0.37500000  1.0
  N  N26  1  -0.37500000  0.62500000  1.12500000  1.0
  N  N27  1  -0.37500000  0.62500000  0.62500000  1.0
