# generated using pymatgen
data_Ca6Si2O13
_symmetry_space_group_name_H-M   'P 1'
_cell_length_a   10.15845863
_cell_length_b   10.15845863
_cell_length_c   7.58043427
_cell_angle_alpha   90.00000000
_cell_angle_beta   90.00000000
_cell_angle_gamma   120.00000000
_symmetry_Int_Tables_number   1
_chemical_formula_structural   Ca6Si2O13
_chemical_formula_sum   'Ca12 Si4 O26'
_cell_volume   677.45484116
_cell_formula_units_Z   2
loop_
 _symmetry_equiv_pos_site_id
 _symmetry_equiv_pos_as_xyz
  1  'x, y, z'
loop_
 _atom_site_type_symbol
 _atom_site_label
 _atom_site_symmetry_multiplicity
 _atom_site_fract_x
 _atom_site_fract_y
 _atom_site_fract_z
 _atom_site_occupancy
  Si  Si0  1  0.00000000  0.00000000  0.23812025  1.0
  Si  Si1  1  0.00000000  0.00000000  0.79819582  1.0
  Si  Si2  1  0.33333333  0.66666667  -0.00856021  1.0
  Si  Si3  1  0.33333333  0.66666667  0.55154511  1.0
  O  O4  1  0.22780088  0.48689568  0.49930334  1.0
  O  O5  1  0.25909479  0.77219912  0.49930334  1.0
  O  O6  1  0.51310432  0.74090521  0.49930334  1.0
  O  O7  1  0.22986901  0.48634563  0.04419862  1.0
  O  O8  1  0.25647662  0.77013099  0.04419862  1.0
  O  O9  1  0.51365437  0.74352338  0.04419862  1.0
  O  O10  1  0.10359765  0.18031249  0.74541506  1.0
  O  O11  1  0.07671484  0.89640235  0.74541506  1.0
  O  O12  1  0.81968751  0.92328516  0.74541506  1.0
  O  O13  1  0.10564604  0.17976616  0.29034294  1.0
  O  O14  1  0.07412012  0.89435396  0.29034294  1.0
  O  O15  1  0.82023384  0.92587988  0.29034294  1.0
  O  O16  1  0.00000000  0.00000000  0.01794015  1.0
  O  O17  1  0.33333333  0.66666667  0.77170397  1.0
  O  O18  1  0.74114165  0.63464520  0.52518033  1.0
  O  O19  1  0.89350355  0.25885835  0.52518033  1.0
  O  O20  1  0.36535480  0.10649645  0.52518033  1.0
  O  O21  1  0.42954134  0.41730745  0.77529082  1.0
  O  O22  1  0.98776611  0.57045866  0.77529082  1.0
  O  O23  1  0.58269255  0.01223389  0.77529082  1.0
  O  O24  1  0.43989409  0.40795417  0.26437092  1.0
  O  O25  1  0.96806008  0.56010591  0.26437092  1.0
  O  O26  1  0.59204583  0.03193992  0.26437092  1.0
  O  O27  1  0.75058481  0.65454364  0.01432268  1.0
  O  O28  1  0.90395883  0.24941519  0.01432268  1.0
  O  O29  1  0.34545636  0.09604117  0.01432268  1.0
  Ca  Ca30  1  0.62100471  0.66444175  0.27235800  1.0
  Ca  Ca31  1  0.04343704  0.37899529  0.27235800  1.0
  Ca  Ca32  1  0.33555825  0.95656296  0.27235800  1.0
  Ca  Ca33  1  0.05134544  0.38207341  0.76619549  1.0
  Ca  Ca34  1  0.33072797  0.94865456  0.76619549  1.0
  Ca  Ca35  1  0.61792659  0.66927203  0.76619549  1.0
  Ca  Ca36  1  0.29007563  0.28769134  0.51725023  1.0
  Ca  Ca37  1  -0.00238428  0.70992437  0.51725023  1.0
  Ca  Ca38  1  0.71230866  1.00238428  0.51725023  1.0
  Ca  Ca39  1  0.28208081  0.28459688  0.02338987  1.0
  Ca  Ca40  1  0.00251607  0.71791919  0.02338987  1.0
  Ca  Ca41  1  0.71540312  0.99748393  0.02338987  1.0
