# generated using pymatgen
data_Zn6Sb5
_symmetry_space_group_name_H-M   'P 1'
_cell_length_a   8.17967024
_cell_length_b   8.17967024
_cell_length_c   8.17967024
_cell_angle_alpha   93.96755897
_cell_angle_beta   93.96755897
_cell_angle_gamma   93.96755897
_symmetry_Int_Tables_number   1
_chemical_formula_structural   Zn6Sb5
_chemical_formula_sum   'Zn12 Sb10'
_cell_volume   543.15027154
_cell_formula_units_Z   2
loop_
 _symmetry_equiv_pos_site_id
 _symmetry_equiv_pos_as_xyz
  1  'x, y, z'
loop_
 _atom_site_type_symbol
 _atom_site_label
 _atom_site_symmetry_multiplicity
 _atom_site_fract_x
 _atom_site_fract_y
 _atom_site_fract_z
 _atom_site_occupancy
  Zn  Zn0  1  1.61677531  -0.00410333  0.62179836  1.0
  Zn  Zn1  1  1.62179836  0.61677531  -0.00410333  1.0
  Zn  Zn2  1  0.99589667  0.62179836  0.61677531  1.0
  Zn  Zn3  1  0.87820164  1.50410333  -0.11677531  1.0
  Zn  Zn4  1  0.88322469  0.87820164  0.50410333  1.0
  Zn  Zn5  1  1.50410333  0.88322469  -0.12179836  1.0
  Zn  Zn6  1  0.38322469  1.00410333  -0.62179836  1.0
  Zn  Zn7  1  0.37820164  0.38322469  0.00410333  1.0
  Zn  Zn8  1  1.00410333  0.37820164  -0.61677531  1.0
  Zn  Zn9  1  1.12179836  -0.50410333  0.11677531  1.0
  Zn  Zn10  1  1.11677531  0.12179836  -0.50410333  1.0
  Zn  Zn11  1  0.49589667  0.11677531  0.12179836  1.0
  Sb  Sb12  1  0.86526998  0.63473002  0.25000000  1.0
  Sb  Sb13  1  1.25000000  0.86526998  -0.36526998  1.0
  Sb  Sb14  1  0.63473002  1.25000000  -0.13473002  1.0
  Sb  Sb15  1  1.13473002  0.36526998  -0.25000000  1.0
  Sb  Sb16  1  0.75000000  0.13473002  0.36526998  1.0
  Sb  Sb17  1  1.36526998  -0.25000000  0.13473002  1.0
  Sb  Sb18  1  0.87941716  0.87941716  0.87941716  1.0
  Sb  Sb19  1  0.62058284  0.62058284  0.62058284  1.0
  Sb  Sb20  1  0.12058284  0.12058284  0.12058284  1.0
  Sb  Sb21  1  0.37941716  0.37941716  0.37941716  1.0
