# generated using pymatgen
data_KLiCO3
_symmetry_space_group_name_H-M   'P 1'
_cell_length_a   6.90177945
_cell_length_b   7.28263733
_cell_length_c   7.84873835
_cell_angle_alpha   90.00000000
_cell_angle_beta   121.26670437
_cell_angle_gamma   90.00000000
_symmetry_Int_Tables_number   1
_chemical_formula_structural   KLiCO3
_chemical_formula_sum   'K4 Li4 C4 O12'
_cell_volume   337.20507397
_cell_formula_units_Z   4
loop_
 _symmetry_equiv_pos_site_id
 _symmetry_equiv_pos_as_xyz
  1  'x, y, z'
loop_
 _atom_site_type_symbol
 _atom_site_label
 _atom_site_symmetry_multiplicity
 _atom_site_fract_x
 _atom_site_fract_y
 _atom_site_fract_z
 _atom_site_occupancy
  K  K0  1  0.64348716  0.81843273  0.36206648  1.0
  K  K1  1  0.64348716  0.68156727  0.86206648  1.0
  K  K2  1  0.35651284  0.31843273  0.13793352  1.0
  K  K3  1  0.35651284  0.18156727  0.63793352  1.0
  Li  Li4  1  0.91451973  0.44824157  0.29849532  1.0
  Li  Li5  1  0.91451973  0.05175843  0.79849532  1.0
  Li  Li6  1  0.08548027  0.94824157  0.20150468  1.0
  Li  Li7  1  0.08548027  0.55175843  0.70150468  1.0
  C  C8  1  0.81636212  0.19830966  0.07080916  1.0
  C  C9  1  0.81636212  0.30169034  0.57080916  1.0
  C  C10  1  0.18363788  0.69830966  0.42919084  1.0
  C  C11  1  0.18363788  0.80169034  0.92919084  1.0
  O  O12  1  1.01310595  0.20615946  0.23861957  1.0
  O  O13  1  1.01310595  0.29384054  0.73861957  1.0
  O  O14  1  -0.01310595  0.70615946  0.26138043  1.0
  O  O15  1  -0.01310595  0.79384054  0.76138043  1.0
  O  O16  1  0.76881277  0.44647814  0.45910288  1.0
  O  O17  1  0.76881277  0.05352186  0.95910288  1.0
  O  O18  1  0.23118723  0.94647814  0.04089712  1.0
  O  O19  1  0.23118723  0.55352186  0.54089712  1.0
  O  O20  1  0.67698472  0.33367578  0.02235949  1.0
  O  O21  1  0.67698472  0.16632422  0.52235949  1.0
  O  O22  1  0.32301528  0.83367578  0.47764051  1.0
  O  O23  1  0.32301528  0.66632422  0.97764051  1.0
