# generated using pymatgen
data_NiW3N
_symmetry_space_group_name_H-M   'P 1'
_cell_length_a   6.20593970
_cell_length_b   7.90726697
_cell_length_c   5.23574737
_cell_angle_alpha   90.00000000
_cell_angle_beta   90.00000000
_cell_angle_gamma   90.00000000
_symmetry_Int_Tables_number   1
_chemical_formula_structural   NiW3N
_chemical_formula_sum   'Ni4 W12 N4'
_cell_volume   256.92871022
_cell_formula_units_Z   4
loop_
 _symmetry_equiv_pos_site_id
 _symmetry_equiv_pos_as_xyz
  1  'x, y, z'
loop_
 _atom_site_type_symbol
 _atom_site_label
 _atom_site_symmetry_multiplicity
 _atom_site_fract_x
 _atom_site_fract_y
 _atom_site_fract_z
 _atom_site_occupancy
  Ni  Ni0  1  0.10993615  0.75000000  0.55619536  1.0
  Ni  Ni1  1  0.60993615  0.75000000  0.94380464  1.0
  Ni  Ni2  1  0.89006385  0.25000000  0.44380464  1.0
  Ni  Ni3  1  0.39006385  0.25000000  0.05619536  1.0
  W  W4  1  0.30900408  0.94853992  0.85417170  1.0
  W  W5  1  0.30900408  0.55146008  0.85417170  1.0
  W  W6  1  0.80900408  0.94853992  0.64582830  1.0
  W  W7  1  0.80900408  0.55146008  0.64582830  1.0
  W  W8  1  0.69099592  0.44853992  0.14582830  1.0
  W  W9  1  0.69099592  0.05146008  0.14582830  1.0
  W  W10  1  0.19099592  0.44853992  0.35417170  1.0
  W  W11  1  0.19099592  0.05146008  0.35417170  1.0
  W  W12  1  0.98483962  0.75000000  0.11747536  1.0
  W  W13  1  0.48483962  0.75000000  0.38252464  1.0
  W  W14  1  0.01516038  0.25000000  0.88252464  1.0
  W  W15  1  0.51516038  0.25000000  0.61747536  1.0
  N  N16  1  0.50000000  0.00000000  0.50000000  1.0
  N  N17  1  0.50000000  0.50000000  0.50000000  1.0
  N  N18  1  0.00000000  0.00000000  0.00000000  1.0
  N  N19  1  0.00000000  0.50000000  0.00000000  1.0
