# generated using pymatgen
data_Ba8Ce3(SbO6)4
_symmetry_space_group_name_H-M   'P 1'
_cell_length_a   10.53377901
_cell_length_b   10.53377901
_cell_length_c   10.53377901
_cell_angle_alpha   131.92506796
_cell_angle_beta   131.92506796
_cell_angle_gamma   70.34739967
_symmetry_Int_Tables_number   1
_chemical_formula_structural   Ba8Ce3(SbO6)4
_chemical_formula_sum   'Ba8 Ce3 Sb4 O24'
_cell_volume   634.09365046
_cell_formula_units_Z   1
loop_
 _symmetry_equiv_pos_site_id
 _symmetry_equiv_pos_as_xyz
  1  'x, y, z'
loop_
 _atom_site_type_symbol
 _atom_site_label
 _atom_site_symmetry_multiplicity
 _atom_site_fract_x
 _atom_site_fract_y
 _atom_site_fract_z
 _atom_site_occupancy
  Ba  Ba0  1  0.61259330  0.61259330  0.45730943  1.0
  Ba  Ba1  1  0.84471613  0.84471613  1.45730943  1.0
  Ba  Ba2  1  1.15528387  0.61259330  1.00000000  1.0
  Ba  Ba3  1  0.38740670  0.84471613  1.00000000  1.0
  Ba  Ba4  1  0.61259330  1.15528387  1.00000000  1.0
  Ba  Ba5  1  0.84471613  0.38740670  1.00000000  1.0
  Ba  Ba6  1  1.15528387  1.15528387  1.54269057  1.0
  Ba  Ba7  1  0.38740670  0.38740670  0.54269057  1.0
  Ce  Ce8  1  0.25000000  0.75000000  0.50000000  1.0
  Ce  Ce9  1  0.75000000  0.25000000  0.50000000  1.0
  Ce  Ce10  1  0.00000000  0.00000000  0.00000000  1.0
  Sb  Sb11  1  0.75431333  0.75431333  1.00000000  1.0
  Sb  Sb12  1  0.24568667  0.24568667  0.00000000  1.0
  Sb  Sb13  1  0.50000000  0.00000000  0.50000000  1.0
  Sb  Sb14  1  0.00000000  0.50000000  0.50000000  1.0
  O  O15  1  0.51304621  0.75224117  0.76080504  1.0
  O  O16  1  1.00856386  0.24775883  0.76080504  1.0
  O  O17  1  0.99143614  0.75224117  1.23919496  1.0
  O  O18  1  0.48695379  0.24775883  0.23919496  1.0
  O  O19  1  0.75224117  0.51304621  0.76080504  1.0
  O  O20  1  0.24775883  1.00856386  0.76080504  1.0
  O  O21  1  0.75224117  0.99143614  1.23919496  1.0
  O  O22  1  0.24775883  0.48695379  0.23919496  1.0
  O  O23  1  0.50000000  0.77234188  1.27234188  1.0
  O  O24  1  0.77234188  0.50000000  1.27234188  1.0
  O  O25  1  0.22765812  0.50000000  0.72765812  1.0
  O  O26  1  0.50000000  0.22765812  0.72765812  1.0
  O  O27  1  -0.00000000  0.73978789  0.73978789  1.0
  O  O28  1  0.73978789  -0.00000000  0.73978789  1.0
  O  O29  1  0.26021211  -0.00000000  0.26021211  1.0
  O  O30  1  -0.00000000  0.26021211  0.26021211  1.0
  O  O31  1  0.38027075  0.88027075  0.50000000  1.0
  O  O32  1  0.61972925  0.11972925  0.50000000  1.0
  O  O33  1  0.88027075  0.38027075  0.50000000  1.0
  O  O34  1  0.11972925  0.61972925  0.50000000  1.0
  O  O35  1  0.87031947  0.87031947  1.00000000  1.0
  O  O36  1  0.12968053  0.12968053  -0.00000000  1.0
  O  O37  1  0.63979887  0.63979887  1.00000000  1.0
  O  O38  1  0.36020113  0.36020113  -0.00000000  1.0
