# generated using pymatgen
data_GaH7(NF2)2
_symmetry_space_group_name_H-M   'P 1'
_cell_length_a   6.37050673
_cell_length_b   6.37050673
_cell_length_c   7.66378170
_cell_angle_alpha   66.81505369
_cell_angle_beta   113.18494631
_cell_angle_gamma   116.54162352
_symmetry_Int_Tables_number   1
_chemical_formula_structural   GaH7(NF2)2
_chemical_formula_sum   'Ga2 H14 N4 F8'
_cell_volume   246.64059362
_cell_formula_units_Z   2
loop_
 _symmetry_equiv_pos_site_id
 _symmetry_equiv_pos_as_xyz
  1  'x, y, z'
loop_
 _atom_site_type_symbol
 _atom_site_label
 _atom_site_symmetry_multiplicity
 _atom_site_fract_x
 _atom_site_fract_y
 _atom_site_fract_z
 _atom_site_occupancy
  Ga  Ga0  1  0.00000000  -0.00000000  0.50000000  1.0
  Ga  Ga1  1  0.00000000  0.00000000  0.00000000  1.0
  H  H2  1  1.42446362  -0.17910331  0.63802944  1.0
  H  H3  1  1.17910331  -0.42446362  0.63802944  1.0
  H  H4  1  0.82089669  0.42446362  0.36197056  1.0
  H  H5  1  0.57553638  0.17910331  0.36197056  1.0
  H  H6  1  0.62051483  0.13326367  0.85621091  1.0
  H  H7  1  0.86673633  0.37948517  0.85621091  1.0
  H  H8  1  1.13326367  -0.37948517  0.14378909  1.0
  H  H9  1  1.37948517  -0.13326367  0.14378909  1.0
  H  H10  1  0.60054997  0.39945003  0.44689941  1.0
  H  H11  1  1.39945003  -0.39945003  0.55310059  1.0
  H  H12  1  1.44422641  -0.44422641  0.79812639  1.0
  H  H13  1  0.55577359  0.44422641  0.20187361  1.0
  H  H14  1  1.21175342  -0.21175342  0.93368702  1.0
  H  H15  1  0.78824658  0.21175342  0.06631298  1.0
  N  N16  1  0.79527120  0.20472880  0.93764371  1.0
  N  N17  1  1.20472880  -0.20472880  0.06235629  1.0
  N  N18  1  1.36405410  -0.36405410  0.65566018  1.0
  N  N19  1  0.63594590  0.36405410  0.34433982  1.0
  F  F20  1  0.33811021  0.06701263  0.64029448  1.0
  F  F21  1  0.93298737  0.66188979  0.64029448  1.0
  F  F22  1  1.06701263  -0.66188979  0.35970552  1.0
  F  F23  1  1.66188979  -0.06701263  0.35970552  1.0
  F  F24  1  0.93530589  0.06469411  0.70293219  1.0
  F  F25  1  1.06469411  -0.06469411  0.29706781  1.0
  F  F26  1  0.71730538  0.71730538  -0.00000000  1.0
  F  F27  1  0.28269462  0.28269462  -0.00000000  1.0
