# generated using pymatgen
data_CsCrH18Br2N6(ClO4)2
_symmetry_space_group_name_H-M   'P 1'
_cell_length_a   10.27037078
_cell_length_b   10.27037078
_cell_length_c   10.27037078
_cell_angle_alpha   43.77923268
_cell_angle_beta   43.77923268
_cell_angle_gamma   43.77923268
_symmetry_Int_Tables_number   1
_chemical_formula_structural   CsCrH18Br2N6(ClO4)2
_chemical_formula_sum   'Cs1 Cr1 H18 Br2 N6 Cl2 O8'
_cell_volume   470.80217490
_cell_formula_units_Z   1
loop_
 _symmetry_equiv_pos_site_id
 _symmetry_equiv_pos_as_xyz
  1  'x, y, z'
loop_
 _atom_site_type_symbol
 _atom_site_label
 _atom_site_symmetry_multiplicity
 _atom_site_fract_x
 _atom_site_fract_y
 _atom_site_fract_z
 _atom_site_occupancy
  Cs  Cs0  1  0.50000000  0.50000000  -0.50000000  1.0
  Cr  Cr1  1  0.00000000  0.00000000  0.00000000  1.0
  H  H2  1  0.72355467  0.31987565  -0.90322523  1.0
  H  H3  1  0.90322523  0.27644533  -0.31987565  1.0
  H  H4  1  0.68012435  -0.09677477  0.27644533  1.0
  H  H5  1  1.27644533  -0.31987565  -0.09677477  1.0
  H  H6  1  0.09677477  0.72355467  -0.68012435  1.0
  H  H7  1  0.31987565  0.09677477  -0.27644533  1.0
  H  H8  1  0.96830448  -0.04658933  -0.68646185  1.0
  H  H9  1  0.68646185  0.03169552  0.04658933  1.0
  H  H10  1  1.04658933  -0.31353815  0.03169552  1.0
  H  H11  1  1.03169552  0.04658933  -0.31353815  1.0
  H  H12  1  0.31353815  -0.03169552  -0.04658933  1.0
  H  H13  1  0.95341067  -0.68646185  -0.03169552  1.0
  H  H14  1  0.84391151  -0.16563108  -0.58752341  1.0
  H  H15  1  0.58752341  0.15608849  0.16563108  1.0
  H  H16  1  1.16563108  -0.41247659  0.15608849  1.0
  H  H17  1  1.15608849  0.16563108  -0.41247659  1.0
  H  H18  1  0.41247659  -0.15608849  -0.16563108  1.0
  H  H19  1  0.83436892  -0.58752341  -0.15608849  1.0
  Br  Br20  1  0.36615067  0.36615067  -0.63384933  1.0
  Br  Br21  1  0.63384933  0.63384933  -0.36615067  1.0
  N  N22  1  0.97282456  -0.13423671  -0.70689275  1.0
  N  N23  1  0.70689275  0.02717544  0.13423671  1.0
  N  N24  1  1.13423671  -0.29310725  0.02717544  1.0
  N  N25  1  1.02717544  0.13423671  -0.29310725  1.0
  N  N26  1  0.29310725  -0.02717544  -0.13423671  1.0
  N  N27  1  0.86576329  -0.70689275  -0.02717544  1.0
  Cl  Cl28  1  0.18803882  0.18803882  0.18803882  1.0
  Cl  Cl29  1  0.81196118  -0.18803882  -0.18803882  1.0
  O  O30  1  1.00100233  0.34465182  -0.72929862  1.0
  O  O31  1  0.72929862  -0.00100233  -0.34465182  1.0
  O  O32  1  0.65534818  -0.27070138  -0.00100233  1.0
  O  O33  1  0.99899767  -0.34465182  -0.27070138  1.0
  O  O34  1  0.27070138  1.00100233  -0.65534818  1.0
  O  O35  1  0.34465182  0.27070138  0.00100233  1.0
  O  O36  1  0.13487112  0.13487112  0.13487112  1.0
  O  O37  1  0.86512888  -0.13487112  -0.13487112  1.0
