# generated using pymatgen
data_Zr3GeO8
_symmetry_space_group_name_H-M   'P 1'
_cell_length_a   6.37975324
_cell_length_b   6.37975324
_cell_length_c   6.37975324
_cell_angle_alpha   133.42149348
_cell_angle_beta   133.42149348
_cell_angle_gamma   67.99298887
_symmetry_Int_Tables_number   1
_chemical_formula_structural   Zr3GeO8
_chemical_formula_sum   'Zr3 Ge1 O8'
_cell_volume   134.61029753
_cell_formula_units_Z   1
loop_
 _symmetry_equiv_pos_site_id
 _symmetry_equiv_pos_as_xyz
  1  'x, y, z'
loop_
 _atom_site_type_symbol
 _atom_site_label
 _atom_site_symmetry_multiplicity
 _atom_site_fract_x
 _atom_site_fract_y
 _atom_site_fract_z
 _atom_site_occupancy
  Zr  Zr0  1  0.25000000  0.75000000  0.50000000  1.0
  Zr  Zr1  1  0.75000000  0.25000000  0.50000000  1.0
  Zr  Zr2  1  0.50000000  0.50000000  1.00000000  1.0
  Ge  Ge3  1  0.00000000  0.00000000  0.00000000  1.0
  O  O4  1  0.53590151  1.14319715  1.00000000  1.0
  O  O5  1  0.85680285  0.85680285  1.39270437  1.0
  O  O6  1  0.46409849  0.46409849  0.60729563  1.0
  O  O7  1  1.14319715  0.53590151  1.00000000  1.0
  O  O8  1  0.30350241  0.87354116  1.00000000  1.0
  O  O9  1  1.12645884  1.12645884  1.42996125  1.0
  O  O10  1  0.69649759  0.69649759  0.57003875  1.0
  O  O11  1  0.87354116  0.30350241  1.00000000  1.0
