# generated using pymatgen
data_Y3AlNiS7
_symmetry_space_group_name_H-M   'P 1'
_cell_length_a   9.57301475
_cell_length_b   9.57301475
_cell_length_c   6.11670707
_cell_angle_alpha   90.00000000
_cell_angle_beta   90.00000000
_cell_angle_gamma   120.00000000
_symmetry_Int_Tables_number   1
_chemical_formula_structural   Y3AlNiS7
_chemical_formula_sum   'Y6 Al2 Ni2 S14'
_cell_volume   485.45141355
_cell_formula_units_Z   2
loop_
 _symmetry_equiv_pos_site_id
 _symmetry_equiv_pos_as_xyz
  1  'x, y, z'
loop_
 _atom_site_type_symbol
 _atom_site_label
 _atom_site_symmetry_multiplicity
 _atom_site_fract_x
 _atom_site_fract_y
 _atom_site_fract_z
 _atom_site_occupancy
  Y  Y0  1  0.77781342  0.62578246  0.20829873  1.0
  Y  Y1  1  0.62578246  0.84796904  0.70829873  1.0
  Y  Y2  1  0.84796904  0.22218658  0.20829873  1.0
  Y  Y3  1  0.37421754  0.15203096  0.20829873  1.0
  Y  Y4  1  0.22218658  0.37421754  0.70829873  1.0
  Y  Y5  1  0.15203096  0.77781342  0.70829873  1.0
  S  S6  1  0.42942985  0.91088025  -0.02196606  1.0
  S  S7  1  0.91088025  0.48145039  0.47803394  1.0
  S  S8  1  0.48145039  0.57057015  -0.02196606  1.0
  S  S9  1  0.08911975  0.51854961  -0.02196606  1.0
  S  S10  1  0.57057015  0.08911975  0.47803394  1.0
  S  S11  1  0.51854961  0.42942985  0.47803394  1.0
  S  S12  1  0.33333333  0.66666667  0.49778097  1.0
  S  S13  1  0.66666667  0.33333333  -0.00221903  1.0
  S  S14  1  0.09680338  0.86814349  0.29859471  1.0
  S  S15  1  0.86814349  0.77134011  0.79859471  1.0
  S  S16  1  0.77134011  0.90319662  0.29859471  1.0
  S  S17  1  0.13185651  0.22865989  0.29859471  1.0
  S  S18  1  0.90319662  0.13185651  0.79859471  1.0
  S  S19  1  0.22865989  0.09680338  0.79859471  1.0
  Ni  Ni20  1  0.00000000  0.00000000  0.04621820  1.0
  Ni  Ni21  1  0.00000000  0.00000000  0.54621820  1.0
  Al  Al22  1  0.33333333  0.66666667  0.13221869  1.0
  Al  Al23  1  0.66666667  0.33333333  0.63221869  1.0
