# generated using pymatgen
data_SrSn2H10Cl6O5
_symmetry_space_group_name_H-M   'P 1'
_cell_length_a   9.79407872
_cell_length_b   9.79407872
_cell_length_c   9.25742448
_cell_angle_alpha   68.85156298
_cell_angle_beta   111.14843702
_cell_angle_gamma   102.57990614
_symmetry_Int_Tables_number   1
_chemical_formula_structural   SrSn2H10Cl6O5
_chemical_formula_sum   'Sr2 Sn4 H20 Cl12 O10'
_cell_volume   768.49015228
_cell_formula_units_Z   2
loop_
 _symmetry_equiv_pos_site_id
 _symmetry_equiv_pos_as_xyz
  1  'x, y, z'
loop_
 _atom_site_type_symbol
 _atom_site_label
 _atom_site_symmetry_multiplicity
 _atom_site_fract_x
 _atom_site_fract_y
 _atom_site_fract_z
 _atom_site_occupancy
  Sr  Sr0  1  0.01251448  0.01251448  0.25000000  1.0
  Sr  Sr1  1  0.98748552  0.98748552  0.75000000  1.0
  Sn  Sn2  1  0.51755273  0.25265330  0.97754113  1.0
  Sn  Sn3  1  1.25265330  -0.48244727  0.52245887  1.0
  Sn  Sn4  1  1.48244727  -0.25265330  0.02245887  1.0
  Sn  Sn5  1  0.74734670  0.48244727  0.47754113  1.0
  H  H6  1  0.88866640  0.33263216  0.07441656  1.0
  H  H7  1  1.33263216  -0.11133360  0.42558344  1.0
  H  H8  1  1.11133360  -0.33263216  0.92558344  1.0
  H  H9  1  0.66736784  0.11133360  0.57441656  1.0
  H  H10  1  0.93386882  0.30409546  0.26256797  1.0
  H  H11  1  1.30409546  -0.06613118  0.23743203  1.0
  H  H12  1  1.06613118  -0.30409546  0.73743203  1.0
  H  H13  1  0.69590454  0.06613118  0.76256797  1.0
  H  H14  1  1.77200232  -0.11286214  0.44475031  1.0
  H  H15  1  0.88713786  0.77200232  0.05524969  1.0
  H  H16  1  0.22799768  0.11286214  0.55524969  1.0
  H  H17  1  1.11286214  -0.77200232  0.94475031  1.0
  H  H18  1  0.75943411  0.05439776  0.37270060  1.0
  H  H19  1  1.05439776  -0.24056589  0.12729940  1.0
  H  H20  1  1.24056589  -0.05439776  0.62729940  1.0
  H  H21  1  0.94560224  0.24056589  0.87270060  1.0
  H  H22  1  1.21262348  -0.67526938  0.22814024  1.0
  H  H23  1  0.32473062  0.21262348  0.27185976  1.0
  H  H24  1  0.78737652  0.67526938  0.77185976  1.0
  H  H25  1  1.67526938  -0.21262348  0.72814024  1.0
  Cl  Cl26  1  0.55432495  0.17740556  0.29862545  1.0
  Cl  Cl27  1  1.17740556  -0.44567505  0.20137455  1.0
  Cl  Cl28  1  1.44567505  -0.17740556  0.70137455  1.0
  Cl  Cl29  1  0.82259444  0.44567505  0.79862545  1.0
  Cl  Cl30  1  1.30438359  -0.58490866  0.89585743  1.0
  Cl  Cl31  1  0.41509134  0.30438359  0.60414257  1.0
  Cl  Cl32  1  0.69561641  0.58490866  0.10414257  1.0
  Cl  Cl33  1  1.58490866  -0.30438359  0.39585743  1.0
  Cl  Cl34  1  0.31584060  0.02203980  0.97639007  1.0
  Cl  Cl35  1  1.02203980  -0.68415940  0.52360993  1.0
  Cl  Cl36  1  1.68415940  -0.02203980  0.02360993  1.0
  Cl  Cl37  1  0.97796020  0.68415940  0.47639007  1.0
  O  O38  1  0.89748198  0.25439764  0.17867748  1.0
  O  O39  1  1.25439764  -0.10251802  0.32132252  1.0
  O  O40  1  1.10251802  -0.25439764  0.82132252  1.0
  O  O41  1  0.74560236  0.10251802  0.67867748  1.0
  O  O42  1  1.83284612  -0.01746597  0.43150452  1.0
  O  O43  1  0.98253403  0.83284612  0.06849548  1.0
  O  O44  1  0.16715388  0.01746597  0.56849548  1.0
  O  O45  1  1.01746597  -0.83284612  0.93150452  1.0
  O  O46  1  0.22045580  0.22045580  0.25000000  1.0
  O  O47  1  0.77954420  0.77954420  0.75000000  1.0
