# generated using pymatgen
data_ZnSn2H12(OF)6
_symmetry_space_group_name_H-M   'P 1'
_cell_length_a   6.92706168
_cell_length_b   7.18342201
_cell_length_c   7.11745504
_cell_angle_alpha   74.76238876
_cell_angle_beta   72.82488510
_cell_angle_gamma   78.34719616
_symmetry_Int_Tables_number   1
_chemical_formula_structural   ZnSn2H12(OF)6
_chemical_formula_sum   'Zn1 Sn2 H12 O6 F6'
_cell_volume   323.49043815
_cell_formula_units_Z   1
loop_
 _symmetry_equiv_pos_site_id
 _symmetry_equiv_pos_as_xyz
  1  'x, y, z'
loop_
 _atom_site_type_symbol
 _atom_site_label
 _atom_site_symmetry_multiplicity
 _atom_site_fract_x
 _atom_site_fract_y
 _atom_site_fract_z
 _atom_site_occupancy
  Zn  Zn0  1  0.00000000  0.00000000  0.00000000  1.0
  Sn  Sn1  1  0.33795153  0.34998431  0.31590999  1.0
  Sn  Sn2  1  0.66204847  0.65001569  0.68409001  1.0
  H  H3  1  0.26321041  0.26179996  0.90253456  1.0
  H  H4  1  0.73678959  0.73820004  0.09746544  1.0
  H  H5  1  0.08203583  0.35989535  0.80069272  1.0
  H  H6  1  0.91796417  0.64010465  0.19930728  1.0
  H  H7  1  0.90671331  0.25450329  0.24583931  1.0
  H  H8  1  0.09328669  0.74549671  0.75416069  1.0
  H  H9  1  0.79081328  1.07230506  0.36171318  1.0
  H  H10  1  0.20918672  -0.07230506  0.63828682  1.0
  H  H11  1  0.24353865  0.93771772  0.25257996  1.0
  H  H12  1  0.75646135  0.06228228  0.74742004  1.0
  H  H13  1  0.35051661  0.81371420  0.08478038  1.0
  H  H14  1  0.64948339  0.18628580  0.91521962  1.0
  O  O15  1  0.16989521  0.23487291  0.83376230  1.0
  O  O16  1  0.83010479  0.76512709  0.16623770  1.0
  O  O17  1  0.82948139  0.16116224  0.22768108  1.0
  O  O18  1  0.17051861  0.83883776  0.77231892  1.0
  O  O19  1  0.21625153  0.86410121  0.16519406  1.0
  O  O20  1  0.78374847  0.13589879  0.83480594  1.0
  F  F21  1  0.28496567  0.05696592  0.40483527  1.0
  F  F22  1  0.71503433  0.94303408  0.59516473  1.0
  F  F23  1  0.03923024  0.41744306  0.27501476  1.0
  F  F24  1  0.96076976  0.58255694  0.72498524  1.0
  F  F25  1  0.42635417  0.30359530  0.01827330  1.0
  F  F26  1  0.57364583  0.69640470  0.98172670  1.0
