# generated using pymatgen
data_Ni(SbO2)2
_symmetry_space_group_name_H-M   'P 1'
_cell_length_a   8.46183536
_cell_length_b   8.46183536
_cell_length_c   6.08811282
_cell_angle_alpha   90.00000000
_cell_angle_beta   90.00000000
_cell_angle_gamma   90.00000000
_symmetry_Int_Tables_number   1
_chemical_formula_structural   Ni(SbO2)2
_chemical_formula_sum   'Ni4 Sb8 O16'
_cell_volume   435.92505807
_cell_formula_units_Z   4
loop_
 _symmetry_equiv_pos_site_id
 _symmetry_equiv_pos_as_xyz
  1  'x, y, z'
loop_
 _atom_site_type_symbol
 _atom_site_label
 _atom_site_symmetry_multiplicity
 _atom_site_fract_x
 _atom_site_fract_y
 _atom_site_fract_z
 _atom_site_occupancy
  Sb  Sb0  1  0.33590369  0.67206498  -0.00000000  1.0
  Sb  Sb1  1  0.83590369  0.82793502  0.00000000  1.0
  Sb  Sb2  1  0.32793502  0.33590369  0.50000000  1.0
  Sb  Sb3  1  0.82793502  0.16409631  0.50000000  1.0
  Sb  Sb4  1  0.66409631  0.32793502  -0.00000000  1.0
  Sb  Sb5  1  0.16409631  0.17206498  0.00000000  1.0
  Sb  Sb6  1  0.67206498  0.66409631  0.50000000  1.0
  Sb  Sb7  1  0.17206498  0.83590369  0.50000000  1.0
  O  O8  1  0.32353316  0.17646684  0.75000000  1.0
  O  O9  1  0.32353316  0.17646684  0.25000000  1.0
  O  O10  1  0.82353316  0.32353316  0.75000000  1.0
  O  O11  1  0.82353316  0.32353316  0.25000000  1.0
  O  O12  1  0.67646684  0.82353316  0.75000000  1.0
  O  O13  1  0.67646684  0.82353316  0.25000000  1.0
  O  O14  1  0.17646684  0.67646684  0.75000000  1.0
  O  O15  1  0.17646684  0.67646684  0.25000000  1.0
  O  O16  1  0.36614793  0.90414114  0.00000000  1.0
  O  O17  1  0.86614793  0.59585886  -0.00000000  1.0
  O  O18  1  0.09585886  0.36614793  0.50000000  1.0
  O  O19  1  0.59585886  0.13385207  0.50000000  1.0
  O  O20  1  0.63385207  0.09585886  -0.00000000  1.0
  O  O21  1  0.13385207  0.40414114  0.00000000  1.0
  O  O22  1  0.90414114  0.63385207  0.50000000  1.0
  O  O23  1  0.40414114  0.86614793  0.50000000  1.0
  Ni  Ni24  1  0.50000000  0.00000000  0.75000000  1.0
  Ni  Ni25  1  0.50000000  0.00000000  0.25000000  1.0
  Ni  Ni26  1  0.00000000  0.50000000  0.75000000  1.0
  Ni  Ni27  1  0.00000000  0.50000000  0.25000000  1.0
