# generated using pymatgen
data_K2ZnH4
_symmetry_space_group_name_H-M   'P 1'
_cell_length_a   7.81709531
_cell_length_b   5.83724379
_cell_length_c   10.31778373
_cell_angle_alpha   90.00000000
_cell_angle_beta   90.00000000
_cell_angle_gamma   90.00000000
_symmetry_Int_Tables_number   1
_chemical_formula_structural   K2ZnH4
_chemical_formula_sum   'K8 Zn4 H16'
_cell_volume   470.80347491
_cell_formula_units_Z   4
loop_
 _symmetry_equiv_pos_site_id
 _symmetry_equiv_pos_as_xyz
  1  'x, y, z'
loop_
 _atom_site_type_symbol
 _atom_site_label
 _atom_site_symmetry_multiplicity
 _atom_site_fract_x
 _atom_site_fract_y
 _atom_site_fract_z
 _atom_site_occupancy
  K  K0  1  0.84038106  0.75000000  0.40939899  1.0
  K  K1  1  0.34038106  0.75000000  0.09060101  1.0
  K  K2  1  0.15961894  0.25000000  0.59060101  1.0
  K  K3  1  0.65961894  0.25000000  0.90939899  1.0
  K  K4  1  0.51252705  0.75000000  0.68623219  1.0
  K  K5  1  0.01252705  0.75000000  0.81376781  1.0
  K  K6  1  0.48747295  0.25000000  0.31376781  1.0
  K  K7  1  0.98747295  0.25000000  0.18623219  1.0
  Zn  Zn8  1  0.76379613  0.75000000  0.08221024  1.0
  Zn  Zn9  1  0.26379613  0.75000000  0.41778976  1.0
  Zn  Zn10  1  0.23620387  0.25000000  0.91778976  1.0
  Zn  Zn11  1  0.73620387  0.25000000  0.58221024  1.0
  H  H12  1  0.19255495  0.75000000  0.57041018  1.0
  H  H13  1  0.69255495  0.75000000  0.92958982  1.0
  H  H14  1  0.80744505  0.25000000  0.42958982  1.0
  H  H15  1  0.30744505  0.25000000  0.07041018  1.0
  H  H16  1  0.68725688  0.98216696  0.15448062  1.0
  H  H17  1  0.68725688  0.51783304  0.15448062  1.0
  H  H18  1  0.18725688  0.98216696  0.34551938  1.0
  H  H19  1  0.18725688  0.51783304  0.34551938  1.0
  H  H20  1  0.31274312  0.48216696  0.84551938  1.0
  H  H21  1  0.31274312  0.01783304  0.84551938  1.0
  H  H22  1  0.81274312  0.48216696  0.65448062  1.0
  H  H23  1  0.81274312  0.01783304  0.65448062  1.0
  H  H24  1  0.97475447  0.75000000  0.08794900  1.0
  H  H25  1  0.47475447  0.75000000  0.41205100  1.0
  H  H26  1  0.02524553  0.25000000  0.91205100  1.0
  H  H27  1  0.52524553  0.25000000  0.58794900  1.0
