# generated using pymatgen
data_NbSe2
_symmetry_space_group_name_H-M   'P 1'
_cell_length_a   3.46960115
_cell_length_b   3.46960115
_cell_length_c   27.12102137
_cell_angle_alpha   90.00000000
_cell_angle_beta   90.00000000
_cell_angle_gamma   120.00000000
_symmetry_Int_Tables_number   1
_chemical_formula_structural   NbSe2
_chemical_formula_sum   'Nb4 Se8'
_cell_volume   282.74554965
_cell_formula_units_Z   4
loop_
 _symmetry_equiv_pos_site_id
 _symmetry_equiv_pos_as_xyz
  1  'x, y, z'
loop_
 _atom_site_type_symbol
 _atom_site_label
 _atom_site_symmetry_multiplicity
 _atom_site_fract_x
 _atom_site_fract_y
 _atom_site_fract_z
 _atom_site_occupancy
  Nb  Nb0  1  0.00000000  -0.00000000  0.75177779  1.0
  Nb  Nb1  1  -0.00000000  -0.00000000  0.24822221  1.0
  Nb  Nb2  1  0.66666667  0.33333333  0.50000000  1.0
  Nb  Nb3  1  0.00000000  0.00000000  0.00000000  1.0
  Se  Se4  1  0.66666667  0.33333333  0.93805127  1.0
  Se  Se5  1  0.66666667  0.33333333  0.06194873  1.0
  Se  Se6  1  0.33333333  0.66666667  0.81361697  1.0
  Se  Se7  1  0.33333333  0.66666667  0.18638303  1.0
  Se  Se8  1  0.33333333  0.66666667  0.68971671  1.0
  Se  Se9  1  0.33333333  0.66666667  0.31028329  1.0
  Se  Se10  1  0.00000000  -0.00000000  0.56197330  1.0
  Se  Se11  1  -0.00000000  -0.00000000  0.43802670  1.0
