# generated using pymatgen
data_Y2SiO5
_symmetry_space_group_name_H-M   'P 1'
_cell_length_a   9.14976570
_cell_length_b   6.88190664
_cell_length_c   6.74552451
_cell_angle_alpha   90.00000000
_cell_angle_beta   105.37588639
_cell_angle_gamma   90.00000000
_symmetry_Int_Tables_number   1
_chemical_formula_structural   Y2SiO5
_chemical_formula_sum   'Y8 Si4 O20'
_cell_volume   409.54798236
_cell_formula_units_Z   4
loop_
 _symmetry_equiv_pos_site_id
 _symmetry_equiv_pos_as_xyz
  1  'x, y, z'
loop_
 _atom_site_type_symbol
 _atom_site_label
 _atom_site_symmetry_multiplicity
 _atom_site_fract_x
 _atom_site_fract_y
 _atom_site_fract_z
 _atom_site_occupancy
  Y  Y0  1  1.02823516  0.37613921  0.23179554  1.0
  Y  Y1  1  1.02823516  0.12386079  0.73179554  1.0
  Y  Y2  1  -0.02823516  0.87613921  0.26820446  1.0
  Y  Y3  1  -0.02823516  0.62386079  0.76820446  1.0
  Y  Y4  1  0.37030127  0.36056153  0.05029263  1.0
  Y  Y5  1  0.37030127  0.13943847  0.55029263  1.0
  Y  Y6  1  0.62969873  0.86056153  0.44970737  1.0
  Y  Y7  1  0.62969873  0.63943847  0.94970737  1.0
  Si  Si8  1  0.70052193  0.40994348  0.47785196  1.0
  Si  Si9  1  0.70052193  0.09005652  0.97785196  1.0
  Si  Si10  1  0.29947807  0.90994348  0.02214804  1.0
  Si  Si11  1  0.29947807  0.59005652  0.52214804  1.0
  O  O12  1  0.88808629  0.88028222  0.56306995  1.0
  O  O13  1  0.88808629  0.61971778  1.06306995  1.0
  O  O14  1  0.11191371  0.38028222  -0.06306995  1.0
  O  O15  1  0.11191371  0.11971778  0.43693005  1.0
  O  O16  1  0.60331766  0.28467483  -0.01664092  1.0
  O  O17  1  0.60331766  0.21532517  0.48335908  1.0
  O  O18  1  0.39668234  0.78467483  0.51664092  1.0
  O  O19  1  0.39668234  0.71532517  1.01664092  1.0
  O  O20  1  0.88459644  0.36292877  0.51243734  1.0
  O  O21  1  0.88459644  0.13707123  1.01243734  1.0
  O  O22  1  0.11540356  0.86292877  -0.01243734  1.0
  O  O23  1  0.11540356  0.63707123  0.48756266  1.0
  O  O24  1  0.37091050  0.05283661  0.21892161  1.0
  O  O25  1  0.37091050  0.44716339  0.71892161  1.0
  O  O26  1  0.62908950  0.55283661  0.28107839  1.0
  O  O27  1  0.62908950  0.94716339  0.78107839  1.0
  O  O28  1  0.29078635  0.42994811  0.33248698  1.0
  O  O29  1  0.29078635  0.07005189  0.83248698  1.0
  O  O30  1  0.70921365  0.92994811  0.16751302  1.0
  O  O31  1  0.70921365  0.57005189  0.66751302  1.0
