# generated using pymatgen
data_K2PtC4(N2Cl)2
_symmetry_space_group_name_H-M   'P 1'
_cell_length_a   7.15468904
_cell_length_b   9.55202268
_cell_length_c   8.73837536
_cell_angle_alpha   90.00000000
_cell_angle_beta   106.96262945
_cell_angle_gamma   90.00000000
_symmetry_Int_Tables_number   1
_chemical_formula_structural   K2PtC4(N2Cl)2
_chemical_formula_sum   'K4 Pt2 C8 N8 Cl4'
_cell_volume   571.21502335
_cell_formula_units_Z   2
loop_
 _symmetry_equiv_pos_site_id
 _symmetry_equiv_pos_as_xyz
  1  'x, y, z'
loop_
 _atom_site_type_symbol
 _atom_site_label
 _atom_site_symmetry_multiplicity
 _atom_site_fract_x
 _atom_site_fract_y
 _atom_site_fract_z
 _atom_site_occupancy
  K  K0  1  0.00475034  0.28491756  0.12195186  1.0
  K  K1  1  0.00475034  0.21508244  0.62195186  1.0
  K  K2  1  0.99524966  0.78491756  0.37804814  1.0
  K  K3  1  0.99524966  0.71508244  0.87804814  1.0
  Pt  Pt4  1  0.50000000  0.50000000  0.50000000  1.0
  Pt  Pt5  1  0.50000000  0.00000000  -0.00000000  1.0
  C  C6  1  0.70105034  0.45450174  0.38736470  1.0
  C  C7  1  0.70105034  0.04549826  0.88736470  1.0
  C  C8  1  0.29894966  0.95450174  0.11263530  1.0
  C  C9  1  0.29894966  0.54549826  0.61263530  1.0
  C  C10  1  0.69618491  0.05036278  0.20893129  1.0
  C  C11  1  0.69618491  0.44963722  0.70893129  1.0
  C  C12  1  0.30381509  0.55036278  0.29106871  1.0
  C  C13  1  0.30381509  0.94963722  0.79106871  1.0
  N  N14  1  0.82257104  0.42682894  0.32770029  1.0
  N  N15  1  0.82257104  0.07317106  0.82770029  1.0
  N  N16  1  0.17742896  0.92682894  0.17229971  1.0
  N  N17  1  0.17742896  0.57317106  0.67229971  1.0
  N  N18  1  0.81724089  0.07720221  0.32729346  1.0
  N  N19  1  0.81724089  0.42279779  0.82729346  1.0
  N  N20  1  0.18275911  0.57720221  0.17270654  1.0
  N  N21  1  0.18275911  0.92279779  0.67270654  1.0
  Cl  Cl22  1  0.38289928  0.26583176  0.46473068  1.0
  Cl  Cl23  1  0.38289928  0.23416824  0.96473068  1.0
  Cl  Cl24  1  0.61710072  0.76583176  0.03526932  1.0
  Cl  Cl25  1  0.61710072  0.73416824  0.53526932  1.0
