# generated using pymatgen
data_CsCuS6
_symmetry_space_group_name_H-M   'P 1'
_cell_length_a   7.58939549
_cell_length_b   11.39199462
_cell_length_c   11.36593061
_cell_angle_alpha   74.76798855
_cell_angle_beta   77.34609589
_cell_angle_gamma   83.61664485
_symmetry_Int_Tables_number   1
_chemical_formula_structural   CsCuS6
_chemical_formula_sum   'Cs4 Cu4 S24'
_cell_volume   923.62612309
_cell_formula_units_Z   4
loop_
 _symmetry_equiv_pos_site_id
 _symmetry_equiv_pos_as_xyz
  1  'x, y, z'
loop_
 _atom_site_type_symbol
 _atom_site_label
 _atom_site_symmetry_multiplicity
 _atom_site_fract_x
 _atom_site_fract_y
 _atom_site_fract_z
 _atom_site_occupancy
  Cs  Cs0  1  -0.83117059  -0.08428847  -0.69408592  1.0
  Cs  Cs1  1  -0.16882941  -0.91571153  -0.30591408  1.0
  Cs  Cs2  1  -0.32637668  -0.57182454  -0.68814471  1.0
  Cs  Cs3  1  -0.67362332  -0.42817546  -0.31185529  1.0
  Cu  Cu4  1  -0.86185859  -0.63202693  -0.48669673  1.0
  Cu  Cu5  1  -0.13814141  -0.36797307  -0.51330327  1.0
  Cu  Cu6  1  -0.60131358  -0.89066954  -0.49442958  1.0
  Cu  Cu7  1  -0.39868642  -0.10933046  -0.50557042  1.0
  S  S8  1  -0.90877991  -0.75246748  -0.76589931  1.0
  S  S9  1  -0.09122009  -0.24753252  -0.23410069  1.0
  S  S10  1  -0.84023562  -0.78554375  -0.58955746  1.0
  S  S11  1  -0.15976438  -0.21445625  -0.41044254  1.0
  S  S12  1  -0.84532572  -0.43014864  -0.59666533  1.0
  S  S13  1  -0.15467428  -0.56985136  -0.40333467  1.0
  S  S14  1  -0.84323020  -0.45456339  -0.89273688  1.0
  S  S15  1  -0.15676980  -0.54543661  -0.10726312  1.0
  S  S16  1  -0.80180072  -0.77268142  -0.20581858  1.0
  S  S17  1  -0.19819928  -0.22731858  -0.79418142  1.0
  S  S18  1  -0.73539443  -0.63130231  -0.89588291  1.0
  S  S19  1  -0.26460557  -0.36869769  -0.10411709  1.0
  S  S20  1  -0.71435435  -0.38531375  -0.78432422  1.0
  S  S21  1  -0.28564565  -0.61468625  -0.21567578  1.0
  S  S22  1  -0.67900106  -0.90737410  -0.08657304  1.0
  S  S23  1  -0.32099894  -0.09262590  -0.91342696  1.0
  S  S24  1  -0.63791697  -0.73980040  -0.38618054  1.0
  S  S25  1  -0.36208303  -0.26019960  -0.61381946  1.0
  S  S26  1  -0.40092701  -0.85321023  -0.78446216  1.0
  S  S27  1  -0.59907299  -0.14678977  -0.21553784  1.0
  S  S28  1  -0.31427778  -0.91319708  -0.61391915  1.0
  S  S29  1  -0.68572222  -0.08680292  -0.38608085  1.0
  S  S30  1  -0.22283007  -0.92529633  -0.91511514  1.0
  S  S31  1  -0.77716993  -0.07470367  -0.08488486  1.0
