# generated using pymatgen
data_ScGePt
_symmetry_space_group_name_H-M   'P 1'
_cell_length_a   6.63844432
_cell_length_b   4.24466709
_cell_length_c   7.50112570
_cell_angle_alpha   90.00000000
_cell_angle_beta   90.00000000
_cell_angle_gamma   90.00000000
_symmetry_Int_Tables_number   1
_chemical_formula_structural   ScGePt
_chemical_formula_sum   'Sc4 Ge4 Pt4'
_cell_volume   211.36661580
_cell_formula_units_Z   4
loop_
 _symmetry_equiv_pos_site_id
 _symmetry_equiv_pos_as_xyz
  1  'x, y, z'
loop_
 _atom_site_type_symbol
 _atom_site_label
 _atom_site_symmetry_multiplicity
 _atom_site_fract_x
 _atom_site_fract_y
 _atom_site_fract_z
 _atom_site_occupancy
  Sc  Sc0  1  1.00032015  0.75000000  0.70334538  1.0
  Sc  Sc1  1  0.50032015  0.75000000  0.79665462  1.0
  Sc  Sc2  1  -0.00032015  0.25000000  0.29665462  1.0
  Sc  Sc3  1  0.49967985  0.25000000  0.20334538  1.0
  Ge  Ge4  1  0.69682089  0.75000000  0.40705843  1.0
  Ge  Ge5  1  0.19682089  0.75000000  0.09294157  1.0
  Ge  Ge6  1  0.30317911  0.25000000  0.59294157  1.0
  Ge  Ge7  1  0.80317911  0.25000000  0.90705843  1.0
  Pt  Pt8  1  0.79481578  0.75000000  0.08313662  1.0
  Pt  Pt9  1  0.29481578  0.75000000  0.41686338  1.0
  Pt  Pt10  1  0.20518422  0.25000000  0.91686338  1.0
  Pt  Pt11  1  0.70518422  0.25000000  0.58313662  1.0
