# generated using pymatgen
data_LiBePO5
_symmetry_space_group_name_H-M   'P 1'
_cell_length_a   9.50154232
_cell_length_b   7.63088696
_cell_length_c   4.78073718
_cell_angle_alpha   90.00000000
_cell_angle_beta   90.00000000
_cell_angle_gamma   90.00000000
_symmetry_Int_Tables_number   1
_chemical_formula_structural   LiBePO5
_chemical_formula_sum   'Li4 Be4 P4 O20'
_cell_volume   346.62828321
_cell_formula_units_Z   4
loop_
 _symmetry_equiv_pos_site_id
 _symmetry_equiv_pos_as_xyz
  1  'x, y, z'
loop_
 _atom_site_type_symbol
 _atom_site_label
 _atom_site_symmetry_multiplicity
 _atom_site_fract_x
 _atom_site_fract_y
 _atom_site_fract_z
 _atom_site_occupancy
  O  O0  1  0.80137880  0.16731979  0.12858222  1.0
  O  O1  1  0.19862120  0.83268021  0.62858222  1.0
  O  O2  1  0.69862120  0.66731979  0.62858222  1.0
  O  O3  1  0.30137880  0.33268021  0.12858222  1.0
  O  O4  1  0.19707058  0.48533663  0.55009925  1.0
  O  O5  1  0.80292942  0.51466337  0.05009925  1.0
  O  O6  1  0.30292942  0.98533663  0.05009925  1.0
  O  O7  1  0.69707058  0.01466337  0.55009925  1.0
  O  O8  1  0.83331557  0.38194658  0.56717692  1.0
  O  O9  1  0.16668443  0.61805342  0.06717692  1.0
  O  O10  1  0.66668443  0.88194658  0.06717692  1.0
  O  O11  1  0.33331557  0.11805342  0.56717692  1.0
  O  O12  1  0.49526177  0.56649704  0.90854601  1.0
  O  O13  1  0.50473823  0.43350296  0.40854601  1.0
  O  O14  1  0.00473823  1.06649704  0.40854601  1.0
  O  O15  1  0.99526177  -0.06649704  0.90854601  1.0
  O  O16  1  0.03801541  0.33705563  0.18055793  1.0
  O  O17  1  0.96198459  0.66294437  0.68055793  1.0
  O  O18  1  0.46198459  0.83705563  0.68055793  1.0
  O  O19  1  0.53801541  0.16294437  0.18055793  1.0
  P  P20  1  0.17394800  0.44435556  0.23565184  1.0
  P  P21  1  0.82605200  0.55564444  0.73565184  1.0
  P  P22  1  0.32605200  0.94435556  0.73565184  1.0
  P  P23  1  0.67394800  0.05564444  0.23565184  1.0
  Li  Li24  1  0.36659705  0.37088338  0.72621394  1.0
  Li  Li25  1  0.63340295  0.62911662  0.22621394  1.0
  Li  Li26  1  0.13340295  0.87088338  0.22621394  1.0
  Li  Li27  1  0.86659705  0.12911662  0.72621394  1.0
  Be  Be28  1  0.86993749  0.35514051  0.23647190  1.0
  Be  Be29  1  0.13006251  0.64485949  0.73647190  1.0
  Be  Be30  1  0.63006251  0.85514051  0.73647190  1.0
  Be  Be31  1  0.36993749  0.14485949  0.23647190  1.0
