# generated using pymatgen
data_KNb2Cl11
_symmetry_space_group_name_H-M   'P 1'
_cell_length_a   7.38392376
_cell_length_b   7.28559148
_cell_length_c   18.45356444
_cell_angle_alpha   80.91671742
_cell_angle_beta   78.65141768
_cell_angle_gamma   89.08591571
_symmetry_Int_Tables_number   1
_chemical_formula_structural   KNb2Cl11
_chemical_formula_sum   'K2 Nb4 Cl22'
_cell_volume   961.00020373
_cell_formula_units_Z   2
loop_
 _symmetry_equiv_pos_site_id
 _symmetry_equiv_pos_as_xyz
  1  'x, y, z'
loop_
 _atom_site_type_symbol
 _atom_site_label
 _atom_site_symmetry_multiplicity
 _atom_site_fract_x
 _atom_site_fract_y
 _atom_site_fract_z
 _atom_site_occupancy
  K  K0  1  -0.24943003  -0.74523976  -0.49756243  1.0
  K  K1  1  -0.75056997  -0.25476024  -0.50243757  1.0
  Nb  Nb2  1  -0.82264634  -0.80296475  -0.35695145  1.0
  Nb  Nb3  1  -0.17735366  -0.19703525  -0.64304855  1.0
  Nb  Nb4  1  -0.67088266  -0.65994715  -0.91594959  1.0
  Nb  Nb5  1  -0.32911734  -0.34005285  -0.08405041  1.0
  Cl  Cl6  1  -0.58778303  -0.56953533  -0.37321454  1.0
  Cl  Cl7  1  -0.41221697  -0.43046467  -0.62678546  1.0
  Cl  Cl8  1  -0.94547171  -0.41500471  -0.66491595  1.0
  Cl  Cl9  1  -0.05452829  -0.58499529  -0.33508405  1.0
  Cl  Cl10  1  -0.62311370  -0.94927955  -0.85594475  1.0
  Cl  Cl11  1  -0.37688630  -0.05072045  -0.14405525  1.0
  Cl  Cl12  1  -0.41991117  -0.98158237  -0.60862726  1.0
  Cl  Cl13  1  -0.58008883  -0.01841763  -0.39137274  1.0
  Cl  Cl14  1  -0.95881623  -0.96569709  -0.63959342  1.0
  Cl  Cl15  1  -0.04118377  -0.03430291  -0.36040658  1.0
  Cl  Cl16  1  -0.82010547  -0.89046331  -0.23207308  1.0
  Cl  Cl17  1  -0.17989453  -0.10953669  -0.76792692  1.0
  Cl  Cl18  1  -0.77486694  -0.77308467  -0.01166769  1.0
  Cl  Cl19  1  -0.22513306  -0.22691533  -0.98833231  1.0
  Cl  Cl20  1  -0.81415777  -0.71148882  -0.49296109  1.0
  Cl  Cl21  1  -0.18584223  -0.28851118  -0.50703891  1.0
  Cl  Cl22  1  -0.34645560  -0.66039530  -0.99948431  1.0
  Cl  Cl23  1  -0.65354440  -0.33960470  -0.00051569  1.0
  Cl  Cl24  1  -0.96048025  -0.59421349  -0.85757110  1.0
  Cl  Cl25  1  -0.03951975  -0.40578651  -0.14242890  1.0
  Cl  Cl26  1  -0.52763166  -0.51170424  -0.83902591  1.0
  Cl  Cl27  1  -0.47236834  -0.48829576  -0.16097409  1.0
