# generated using pymatgen
data_Ca(BO2)3
_symmetry_space_group_name_H-M   'P 1'
_cell_length_a   13.79960149
_cell_length_b   7.04965296
_cell_length_c   4.42098160
_cell_angle_alpha   90.00000000
_cell_angle_beta   90.00000000
_cell_angle_gamma   90.00000000
_symmetry_Int_Tables_number   1
_chemical_formula_structural   Ca(BO2)3
_chemical_formula_sum   'Ca4 B12 O24'
_cell_volume   430.08370751
_cell_formula_units_Z   4
loop_
 _symmetry_equiv_pos_site_id
 _symmetry_equiv_pos_as_xyz
  1  'x, y, z'
loop_
 _atom_site_type_symbol
 _atom_site_label
 _atom_site_symmetry_multiplicity
 _atom_site_fract_x
 _atom_site_fract_y
 _atom_site_fract_z
 _atom_site_occupancy
  Ca  Ca0  1  0.08929324  0.26042053  0.94755447  1.0
  Ca  Ca1  1  0.58929324  0.23957947  0.94755447  1.0
  Ca  Ca2  1  0.91070676  0.73957947  0.44755447  1.0
  Ca  Ca3  1  0.41070676  0.76042053  0.44755447  1.0
  O  O4  1  0.42405286  0.22642197  0.82496893  1.0
  O  O5  1  0.92405286  0.27357803  0.82496893  1.0
  O  O6  1  0.57594714  0.77357803  0.32496893  1.0
  O  O7  1  0.07594714  0.72642197  0.32496893  1.0
  O  O8  1  0.40003325  0.10164971  0.31455072  1.0
  O  O9  1  0.90003325  0.39835029  0.31455072  1.0
  O  O10  1  0.59996675  0.89835029  0.81455072  1.0
  O  O11  1  0.09996675  0.60164971  0.81455072  1.0
  O  O12  1  0.35354731  0.43050679  0.44180343  1.0
  O  O13  1  0.85354731  0.06949321  0.44180343  1.0
  O  O14  1  0.64645269  0.56949321  0.94180343  1.0
  O  O15  1  0.14645269  0.93050679  0.94180343  1.0
  O  O16  1  0.26439151  0.25493471  0.06984068  1.0
  O  O17  1  0.76439151  0.24506529  0.06984068  1.0
  O  O18  1  0.73560849  0.74506529  0.56984068  1.0
  O  O19  1  0.23560849  0.75493471  0.56984068  1.0
  O  O20  1  0.17835476  0.45523906  0.38313405  1.0
  O  O21  1  0.67835476  0.04476094  0.38313405  1.0
  O  O22  1  0.82164524  0.54476094  0.88313405  1.0
  O  O23  1  0.32164524  0.95523906  0.88313405  1.0
  O  O24  1  0.02167061  0.18629243  0.41807455  1.0
  O  O25  1  0.52167061  0.31370757  0.41807455  1.0
  O  O26  1  0.97832939  0.81370757  0.91807455  1.0
  O  O27  1  0.47832939  0.68629243  0.91807455  1.0
  B  B28  1  0.42295159  0.27126112  0.50500771  1.0
  B  B29  1  0.92295159  0.22873888  0.50500771  1.0
  B  B30  1  0.57704841  0.72873888  0.00500771  1.0
  B  B31  1  0.07704841  0.77126112  0.00500771  1.0
  B  B32  1  0.35221232  0.13779678  0.01405764  1.0
  B  B33  1  0.85221232  0.36220322  0.01405764  1.0
  B  B34  1  0.64778768  0.86220322  0.51405764  1.0
  B  B35  1  0.14778768  0.63779678  0.51405764  1.0
  B  B36  1  0.26730034  0.38512644  0.30230781  1.0
  B  B37  1  0.76730034  0.11487356  0.30230781  1.0
  B  B38  1  0.73269966  0.61487356  0.80230781  1.0
  B  B39  1  0.23269966  0.88512644  0.80230781  1.0
