# generated using pymatgen
data_Ti5CrSb2
_symmetry_space_group_name_H-M   'P 1'
_cell_length_a   7.86422969
_cell_length_b   7.86422969
_cell_length_c   7.86422969
_cell_angle_alpha   96.21254464
_cell_angle_beta   96.21254464
_cell_angle_gamma   141.58824134
_symmetry_Int_Tables_number   1
_chemical_formula_structural   Ti5CrSb2
_chemical_formula_sum   'Ti10 Cr2 Sb4'
_cell_volume   285.36816660
_cell_formula_units_Z   2
loop_
 _symmetry_equiv_pos_site_id
 _symmetry_equiv_pos_as_xyz
  1  'x, y, z'
loop_
 _atom_site_type_symbol
 _atom_site_label
 _atom_site_symmetry_multiplicity
 _atom_site_fract_x
 _atom_site_fract_y
 _atom_site_fract_z
 _atom_site_occupancy
  Ti  Ti0  1  0.29793270  0.42929668  0.72722938  1.0
  Ti  Ti1  1  1.20206730  0.92929668  1.13136398  1.0
  Ti  Ti2  1  0.92929668  0.79793270  1.72722938  1.0
  Ti  Ti3  1  0.57070332  1.29793270  0.86863602  1.0
  Ti  Ti4  1  0.79793270  1.07070332  0.86863602  1.0
  Ti  Ti5  1  0.70206730  0.57070332  1.27277062  1.0
  Ti  Ti6  1  1.42929668  0.70206730  1.13136398  1.0
  Ti  Ti7  1  0.07070332  0.20206730  0.27277062  1.0
  Ti  Ti8  1  0.75000000  1.25000000  0.50000000  1.0
  Ti  Ti9  1  0.25000000  0.75000000  0.50000000  1.0
  Cr  Cr10  1  0.25000000  0.25000000  -0.00000000  1.0
  Cr  Cr11  1  0.75000000  0.75000000  -0.00000000  1.0
  Sb  Sb12  1  0.83652346  0.33652346  1.17304691  1.0
  Sb  Sb13  1  0.66347654  0.83652346  0.50000000  1.0
  Sb  Sb14  1  1.33652346  1.16347654  1.50000000  1.0
  Sb  Sb15  1  0.16347654  0.66347654  0.82695309  1.0
