# generated using pymatgen
data_Eu2(MoO4)3
_symmetry_space_group_name_H-M   'P 1'
_cell_length_a   7.57630140
_cell_length_b   7.57630140
_cell_length_c   10.83028907
_cell_angle_alpha   90.00000000
_cell_angle_beta   90.00000000
_cell_angle_gamma   90.00000000
_symmetry_Int_Tables_number   1
_chemical_formula_structural   Eu2(MoO4)3
_chemical_formula_sum   'Eu4 Mo6 O24'
_cell_volume   621.66230671
_cell_formula_units_Z   2
loop_
 _symmetry_equiv_pos_site_id
 _symmetry_equiv_pos_as_xyz
  1  'x, y, z'
loop_
 _atom_site_type_symbol
 _atom_site_label
 _atom_site_symmetry_multiplicity
 _atom_site_fract_x
 _atom_site_fract_y
 _atom_site_fract_z
 _atom_site_occupancy
  Eu  Eu0  1  0.81074748  0.31074748  0.26371506  1.0
  Eu  Eu1  1  0.68925252  0.81074748  0.73628494  1.0
  Eu  Eu2  1  0.18925252  0.68925252  0.26371506  1.0
  Eu  Eu3  1  0.31074748  0.18925252  0.73628494  1.0
  Mo  Mo4  1  0.79175150  0.29175150  0.64600540  1.0
  Mo  Mo5  1  0.70824850  0.79175150  0.35399460  1.0
  Mo  Mo6  1  0.20824850  0.70824850  0.64600540  1.0
  Mo  Mo7  1  0.29175150  0.20824850  0.35399460  1.0
  Mo  Mo8  1  0.50000000  0.50000000  0.00000000  1.0
  Mo  Mo9  1  0.00000000  0.00000000  0.00000000  1.0
  O  O10  1  0.27311548  0.49996294  0.70337245  1.0
  O  O11  1  0.22688452  0.99996294  0.29662755  1.0
  O  O12  1  0.50003706  0.27311548  0.29662755  1.0
  O  O13  1  0.99996294  0.77311548  0.70337245  1.0
  O  O14  1  0.72688452  0.50003706  0.70337245  1.0
  O  O15  1  0.77311548  0.00003706  0.29662755  1.0
  O  O16  1  0.49996294  0.72688452  0.29662755  1.0
  O  O17  1  0.00003706  0.22688452  0.70337245  1.0
  O  O18  1  0.45321088  0.31478151  0.90509190  1.0
  O  O19  1  0.04678912  0.81478151  0.09490810  1.0
  O  O20  1  0.68521849  0.45321088  0.09490810  1.0
  O  O21  1  0.81478151  0.95321088  0.90509190  1.0
  O  O22  1  0.54678912  0.68521849  0.90509190  1.0
  O  O23  1  0.95321088  0.18521849  0.09490810  1.0
  O  O24  1  0.31478151  0.54678912  0.09490810  1.0
  O  O25  1  0.18521849  0.04678912  0.90509190  1.0
  O  O26  1  0.80278143  0.30278143  0.48309638  1.0
  O  O27  1  0.69721857  0.80278143  0.51690362  1.0
  O  O28  1  0.19721857  0.69721857  0.48309638  1.0
  O  O29  1  0.30278143  0.19721857  0.51690362  1.0
  O  O30  1  0.37112135  0.87112135  0.69203877  1.0
  O  O31  1  0.12887865  0.37112135  0.30796123  1.0
  O  O32  1  0.62887865  0.12887865  0.69203877  1.0
  O  O33  1  0.87112135  0.62887865  0.30796123  1.0
