# generated using pymatgen
data_Mn3H2Se3O10
_symmetry_space_group_name_H-M   'P 1'
_cell_length_a   9.09609516
_cell_length_b   8.37133496
_cell_length_c   8.38473780
_cell_angle_alpha   68.45871673
_cell_angle_beta   65.85049447
_cell_angle_gamma   68.40150239
_symmetry_Int_Tables_number   1
_chemical_formula_structural   Mn3H2Se3O10
_chemical_formula_sum   'Mn6 H4 Se6 O20'
_cell_volume   523.73793576
_cell_formula_units_Z   2
loop_
 _symmetry_equiv_pos_site_id
 _symmetry_equiv_pos_as_xyz
  1  'x, y, z'
loop_
 _atom_site_type_symbol
 _atom_site_label
 _atom_site_symmetry_multiplicity
 _atom_site_fract_x
 _atom_site_fract_y
 _atom_site_fract_z
 _atom_site_occupancy
  Mn  Mn0  1  0.80076654  0.53403708  0.15610219  1.0
  Mn  Mn1  1  0.19923346  0.46596292  0.84389781  1.0
  Mn  Mn2  1  0.42426868  0.32727163  0.19767406  1.0
  Mn  Mn3  1  0.57573132  0.67272837  0.80232594  1.0
  Mn  Mn4  1  0.00000000  0.50000000  0.50000000  1.0
  Mn  Mn5  1  0.50000000  -0.00000000  0.00000000  1.0
  H  H6  1  0.60734548  0.30463078  0.44741712  1.0
  H  H7  1  0.39265452  0.69536922  0.55258288  1.0
  H  H8  1  0.29461198  0.63551534  0.47262925  1.0
  H  H9  1  0.70538802  0.36448466  0.52737075  1.0
  Se  Se10  1  0.21883528  0.71027728  0.07582413  1.0
  Se  Se11  1  0.78116472  0.28972272  0.92417587  1.0
  Se  Se12  1  0.10379285  0.16484061  0.28071875  1.0
  Se  Se13  1  0.89620715  0.83515939  0.71928125  1.0
  Se  Se14  1  0.31272425  0.17053653  0.66075751  1.0
  Se  Se15  1  0.68727575  0.82946347  0.33924249  1.0
  O  O16  1  0.66631864  0.44411384  0.05633053  1.0
  O  O17  1  0.33368136  0.55588616  0.94366947  1.0
  O  O18  1  0.62700899  0.17982421  0.00789183  1.0
  O  O19  1  0.37299101  0.82017579  0.99210817  1.0
  O  O20  1  0.04172606  0.34509462  0.11206101  1.0
  O  O21  1  0.95827394  0.65490538  0.88793899  1.0
  O  O22  1  0.31944170  0.14200450  0.19446120  1.0
  O  O23  1  0.68055830  0.85799550  0.80553880  1.0
  O  O24  1  0.24412321  0.56239298  0.27677369  1.0
  O  O25  1  0.75587679  0.43760702  0.72322631  1.0
  O  O26  1  0.05502197  0.25148062  0.45484616  1.0
  O  O27  1  0.94497803  0.74851938  0.54515384  1.0
  O  O28  1  0.70822413  0.34451245  0.41819369  1.0
  O  O29  1  0.29177587  0.65548755  0.58180631  1.0
  O  O30  1  0.45251854  0.23366958  0.45010324  1.0
  O  O31  1  0.54748146  0.76633042  0.54989676  1.0
  O  O32  1  0.14371762  0.35842378  0.68030400  1.0
  O  O33  1  0.85628238  0.64157622  0.31969600  1.0
  O  O34  1  0.38837028  0.20751990  0.80027835  1.0
  O  O35  1  0.61162972  0.79248010  0.19972165  1.0
