# generated using pymatgen
data_KPbI3
_symmetry_space_group_name_H-M   'P 1'
_cell_length_a   10.51687551
_cell_length_b   4.74651261
_cell_length_c   17.71687009
_cell_angle_alpha   90.00000000
_cell_angle_beta   90.00000000
_cell_angle_gamma   90.00000000
_symmetry_Int_Tables_number   1
_chemical_formula_structural   KPbI3
_chemical_formula_sum   'K4 Pb4 I12'
_cell_volume   884.39926524
_cell_formula_units_Z   4
loop_
 _symmetry_equiv_pos_site_id
 _symmetry_equiv_pos_as_xyz
  1  'x, y, z'
loop_
 _atom_site_type_symbol
 _atom_site_label
 _atom_site_symmetry_multiplicity
 _atom_site_fract_x
 _atom_site_fract_y
 _atom_site_fract_z
 _atom_site_occupancy
  K  K0  1  0.60826340  0.75000000  0.69478395  1.0
  K  K1  1  0.10826340  0.75000000  0.80521605  1.0
  K  K2  1  0.39173660  0.25000000  0.30521605  1.0
  K  K3  1  0.89173660  0.25000000  0.19478395  1.0
  Pb  Pb4  1  0.81329171  0.75000000  0.45177873  1.0
  Pb  Pb5  1  0.31329171  0.75000000  0.04822127  1.0
  Pb  Pb6  1  0.18670829  0.25000000  0.54822127  1.0
  Pb  Pb7  1  0.68670829  0.25000000  0.95177873  1.0
  I  I8  1  0.99679620  0.75000000  0.60962227  1.0
  I  I9  1  0.49679620  0.75000000  0.89037773  1.0
  I  I10  1  0.00320380  0.25000000  0.39037773  1.0
  I  I11  1  0.50320380  0.25000000  0.10962227  1.0
  I  I12  1  0.84411918  0.75000000  0.03606623  1.0
  I  I13  1  0.34411918  0.75000000  0.46393377  1.0
  I  I14  1  0.15588082  0.25000000  0.96393377  1.0
  I  I15  1  0.65588082  0.25000000  0.53606623  1.0
  I  I16  1  0.67269454  0.75000000  0.29433304  1.0
  I  I17  1  0.17269454  0.75000000  0.20566696  1.0
  I  I18  1  0.32730546  0.25000000  0.70566696  1.0
  I  I19  1  0.82730546  0.25000000  0.79433304  1.0
