# generated using pymatgen
data_Sr3MgTa2O9
_symmetry_space_group_name_H-M   'P 1'
_cell_length_a   5.70364837
_cell_length_b   5.70364837
_cell_length_c   7.01506767
_cell_angle_alpha   90.00000000
_cell_angle_beta   90.00000000
_cell_angle_gamma   120.00000000
_symmetry_Int_Tables_number   1
_chemical_formula_structural   Sr3MgTa2O9
_chemical_formula_sum   'Sr3 Mg1 Ta2 O9'
_cell_volume   197.63687724
_cell_formula_units_Z   1
loop_
 _symmetry_equiv_pos_site_id
 _symmetry_equiv_pos_as_xyz
  1  'x, y, z'
loop_
 _atom_site_type_symbol
 _atom_site_label
 _atom_site_symmetry_multiplicity
 _atom_site_fract_x
 _atom_site_fract_y
 _atom_site_fract_z
 _atom_site_occupancy
  Sr  Sr0  1  0.33333333  0.66666667  0.66249484  1.0
  Sr  Sr1  1  0.66666667  0.33333333  0.33750516  1.0
  Sr  Sr2  1  0.00000000  0.00000000  0.00000000  1.0
  Mg  Mg3  1  0.00000000  0.00000000  0.50000000  1.0
  Ta  Ta4  1  0.33333333  0.66666667  0.17862298  1.0
  Ta  Ta5  1  0.66666667  0.33333333  0.82137702  1.0
  O  O6  1  0.66143385  0.83071692  0.32768185  1.0
  O  O7  1  0.83071692  0.66143385  0.67231815  1.0
  O  O8  1  0.83071692  0.16928308  0.67231815  1.0
  O  O9  1  0.16928308  0.83071692  0.32768185  1.0
  O  O10  1  0.16928308  0.33856615  0.32768185  1.0
  O  O11  1  0.33856615  0.16928308  0.67231815  1.0
  O  O12  1  0.50000000  0.50000000  0.00000000  1.0
  O  O13  1  0.50000000  0.00000000  0.00000000  1.0
  O  O14  1  -0.00000000  0.50000000  0.00000000  1.0
