# generated using pymatgen
data_Fe2PO5
_symmetry_space_group_name_H-M   'P 1'
_cell_length_a   7.36348040
_cell_length_b   7.36348040
_cell_length_c   9.75263338
_cell_angle_alpha   64.63128387
_cell_angle_beta   115.36871613
_cell_angle_gamma   128.01166882
_symmetry_Int_Tables_number   1
_chemical_formula_structural   Fe2PO5
_chemical_formula_sum   'Fe8 P4 O20'
_cell_volume   366.25452510
_cell_formula_units_Z   4
loop_
 _symmetry_equiv_pos_site_id
 _symmetry_equiv_pos_as_xyz
  1  'x, y, z'
loop_
 _atom_site_type_symbol
 _atom_site_label
 _atom_site_symmetry_multiplicity
 _atom_site_fract_x
 _atom_site_fract_y
 _atom_site_fract_z
 _atom_site_occupancy
  Fe  Fe0  1  1.59888438  0.18022994  0.27493846  1.0
  Fe  Fe1  1  0.81977006  0.40111562  0.77493846  1.0
  Fe  Fe2  1  1.01341593  -0.56222254  0.10122175  1.0
  Fe  Fe3  1  0.56222254  -0.01341593  0.60122175  1.0
  Fe  Fe4  1  0.88601693  0.88930514  0.48196570  1.0
  Fe  Fe5  1  0.11069486  0.11398307  -0.01803430  1.0
  Fe  Fe6  1  1.61929820  -0.17089951  0.14404782  1.0
  Fe  Fe7  1  1.17089951  -0.61929820  0.64404782  1.0
  O  O8  1  1.36636779  -0.46574490  0.26434358  1.0
  O  O9  1  1.46574490  -0.36636779  0.76434358  1.0
  O  O10  1  0.91123923  0.80923769  0.31902920  1.0
  O  O11  1  0.19076231  0.08876077  0.81902920  1.0
  O  O12  1  1.74100897  0.12646869  0.17061716  1.0
  O  O13  1  0.87353131  0.25899103  0.67061716  1.0
  O  O14  1  1.69708086  -0.00820435  0.46563221  1.0
  O  O15  1  1.00820435  0.30291914  0.96563221  1.0
  O  O16  1  1.22288783  -0.29652568  0.48675650  1.0
  O  O17  1  0.29652568  -0.22288783  0.98675650  1.0
  O  O18  1  1.46270397  0.37364217  0.04561681  1.0
  O  O19  1  0.62635783  0.53729603  0.54561681  1.0
  O  O20  1  0.45694116  0.21044812  0.41679282  1.0
  O  O21  1  0.78955188  0.54305884  0.91679282  1.0
  O  O22  1  0.49424638  0.08106382  0.76144924  1.0
  O  O23  1  0.91893618  -0.49424638  0.26144924  1.0
  O  O24  1  1.23614590  -0.06158209  0.20255836  1.0
  O  O25  1  1.06158209  0.76385410  0.70255836  1.0
  O  O26  1  0.76107625  -0.18629642  0.99709472  1.0
  O  O27  1  1.18629642  -0.76107625  0.49709472  1.0
  P  P28  1  1.07272937  -0.26285631  0.31912385  1.0
  P  P29  1  0.26285631  -0.07272937  0.81912385  1.0
  P  P30  1  0.41144177  0.38082118  0.43161183  1.0
  P  P31  1  0.61917882  0.58855823  0.93161183  1.0
