# generated using pymatgen
data_CsSm(MoO4)2
_symmetry_space_group_name_H-M   'P 1'
_cell_length_a   7.66176425
_cell_length_b   7.66176425
_cell_length_c   7.99414827
_cell_angle_alpha   61.99573757
_cell_angle_beta   118.00426243
_cell_angle_gamma   91.52722931
_symmetry_Int_Tables_number   1
_chemical_formula_structural   CsSm(MoO4)2
_chemical_formula_sum   'Cs2 Sm2 Mo4 O16'
_cell_volume   354.33123917
_cell_formula_units_Z   2
loop_
 _symmetry_equiv_pos_site_id
 _symmetry_equiv_pos_as_xyz
  1  'x, y, z'
loop_
 _atom_site_type_symbol
 _atom_site_label
 _atom_site_symmetry_multiplicity
 _atom_site_fract_x
 _atom_site_fract_y
 _atom_site_fract_z
 _atom_site_occupancy
  Cs  Cs0  1  0.19042999  0.19042999  0.25000000  1.0
  Cs  Cs1  1  0.80957001  0.80957001  0.75000000  1.0
  Sm  Sm2  1  0.76951818  0.76951818  0.25000000  1.0
  Sm  Sm3  1  0.23048182  0.23048182  0.75000000  1.0
  Mo  Mo4  1  0.68984025  0.30919984  0.23295324  1.0
  Mo  Mo5  1  0.69080016  0.31015975  0.73295324  1.0
  Mo  Mo6  1  1.30919984  -0.31015975  0.26704676  1.0
  Mo  Mo7  1  1.31015975  -0.30919984  0.76704676  1.0
  O  O8  1  1.57976608  -0.37095534  0.03091773  1.0
  O  O9  1  1.37095534  -0.57976608  0.53091773  1.0
  O  O10  1  0.62904466  0.57976608  0.46908227  1.0
  O  O11  1  0.42023392  0.37095534  0.96908227  1.0
  O  O12  1  0.78628728  0.06460002  0.29062517  1.0
  O  O13  1  0.93539998  0.21371272  0.79062517  1.0
  O  O14  1  1.06460002  -0.21371272  0.20937483  1.0
  O  O15  1  1.21371272  -0.06460002  0.70937483  1.0
  O  O16  1  1.38613396  -0.07889542  0.13437195  1.0
  O  O17  1  1.07889542  -0.38613396  0.63437195  1.0
  O  O18  1  0.92110458  0.38613396  0.36562805  1.0
  O  O19  1  0.61386604  0.07889542  0.86562805  1.0
  O  O20  1  0.60902468  0.24187600  0.42150533  1.0
  O  O21  1  0.75812400  0.39097532  0.92150533  1.0
  O  O22  1  1.24187600  -0.39097532  0.07849467  1.0
  O  O23  1  1.39097532  -0.24187600  0.57849467  1.0
