# generated using pymatgen
data_Gd2TiZnO6
_symmetry_space_group_name_H-M   'P 1'
_cell_length_a   5.39908591
_cell_length_b   5.71117011
_cell_length_c   9.49870674
_cell_angle_alpha   90.00000000
_cell_angle_beta   125.13478449
_cell_angle_gamma   90.00000000
_symmetry_Int_Tables_number   1
_chemical_formula_structural   Gd2TiZnO6
_chemical_formula_sum   'Gd4 Ti2 Zn2 O12'
_cell_volume   239.52848863
_cell_formula_units_Z   2
loop_
 _symmetry_equiv_pos_site_id
 _symmetry_equiv_pos_as_xyz
  1  'x, y, z'
loop_
 _atom_site_type_symbol
 _atom_site_label
 _atom_site_symmetry_multiplicity
 _atom_site_fract_x
 _atom_site_fract_y
 _atom_site_fract_z
 _atom_site_occupancy
  Gd  Gd0  1  0.73376456  0.06691424  0.25214452  1.0
  Gd  Gd1  1  0.73376456  0.43308576  0.75214452  1.0
  Gd  Gd2  1  0.26623544  0.56691424  0.24785548  1.0
  Gd  Gd3  1  0.26623544  0.93308576  0.74785548  1.0
  Ti  Ti4  1  0.50000000  0.50000000  0.00000000  1.0
  Ti  Ti5  1  0.50000000  0.00000000  0.50000000  1.0
  Zn  Zn6  1  0.00000000  0.50000000  0.50000000  1.0
  Zn  Zn7  1  0.00000000  0.00000000  0.00000000  1.0
  O  O8  1  0.85248756  0.45927746  0.24089808  1.0
  O  O9  1  0.85248756  0.04072254  0.74089808  1.0
  O  O10  1  0.14751244  0.95927746  0.25910192  1.0
  O  O11  1  0.14751244  0.54072254  0.75910192  1.0
  O  O12  1  0.74188610  0.81469338  0.44644905  1.0
  O  O13  1  0.74188610  0.68530662  0.94644905  1.0
  O  O14  1  0.25811390  0.31469338  0.05355095  1.0
  O  O15  1  0.25811390  0.18530662  0.55355095  1.0
  O  O16  1  0.62158853  0.29186676  0.43881719  1.0
  O  O17  1  0.62158853  0.20813324  0.93881719  1.0
  O  O18  1  0.37841147  0.79186676  0.06118281  1.0
  O  O19  1  0.37841147  0.70813324  0.56118281  1.0
