# generated using pymatgen
data_Mg2PN3
_symmetry_space_group_name_H-M   'P 1'
_cell_length_a   5.65235301
_cell_length_b   5.65235301
_cell_length_c   4.77111088
_cell_angle_alpha   90.00000000
_cell_angle_beta   90.00000000
_cell_angle_gamma   60.39216558
_symmetry_Int_Tables_number   1
_chemical_formula_structural   Mg2PN3
_chemical_formula_sum   'Mg4 P2 N6'
_cell_volume   132.52913935
_cell_formula_units_Z   2
loop_
 _symmetry_equiv_pos_site_id
 _symmetry_equiv_pos_as_xyz
  1  'x, y, z'
loop_
 _atom_site_type_symbol
 _atom_site_label
 _atom_site_symmetry_multiplicity
 _atom_site_fract_x
 _atom_site_fract_y
 _atom_site_fract_z
 _atom_site_occupancy
  Mg  Mg0  1  -0.17067426  1.49711711  0.98676365  1.0
  Mg  Mg1  1  0.49711711  0.82932574  0.48676365  1.0
  Mg  Mg2  1  -0.49711711  1.17067426  0.98676365  1.0
  Mg  Mg3  1  0.17067426  0.50288289  0.48676365  1.0
  P  P4  1  0.16208309  0.83791691  0.00422643  1.0
  P  P5  1  -0.16208309  1.16208309  0.50422643  1.0
  N  N6  1  -0.16259433  1.44440880  0.43193815  1.0
  N  N7  1  0.44440880  0.83740567  0.93193815  1.0
  N  N8  1  -0.44440880  1.16259433  0.43193815  1.0
  N  N9  1  0.16259433  0.55559120  0.93193815  1.0
  N  N10  1  0.11065610  0.88934390  0.35806998  1.0
  N  N11  1  -0.11065610  1.11065610  0.85806998  1.0
