# generated using pymatgen
data_Hg2AsF6
_symmetry_space_group_name_H-M   'P 1'
_cell_length_a   5.67255329
_cell_length_b   12.02089119
_cell_length_c   10.20928245
_cell_angle_alpha   90.00000000
_cell_angle_beta   90.58618938
_cell_angle_gamma   90.00000000
_symmetry_Int_Tables_number   1
_chemical_formula_structural   Hg2AsF6
_chemical_formula_sum   'Hg8 As4 F24'
_cell_volume   696.12581549
_cell_formula_units_Z   4
loop_
 _symmetry_equiv_pos_site_id
 _symmetry_equiv_pos_as_xyz
  1  'x, y, z'
loop_
 _atom_site_type_symbol
 _atom_site_label
 _atom_site_symmetry_multiplicity
 _atom_site_fract_x
 _atom_site_fract_y
 _atom_site_fract_z
 _atom_site_occupancy
  Hg  Hg0  1  1.00136004  0.97800037  0.12800568  1.0
  Hg  Hg1  1  1.00136004  0.52199963  0.62800568  1.0
  Hg  Hg2  1  -0.00136004  0.47800037  0.37199432  1.0
  Hg  Hg3  1  -0.00136004  0.02199963  0.87199432  1.0
  Hg  Hg4  1  0.98437901  0.41691810  0.11639999  1.0
  Hg  Hg5  1  0.98437901  0.08308190  0.61639999  1.0
  Hg  Hg6  1  0.01562099  0.91691810  0.38360001  1.0
  Hg  Hg7  1  0.01562099  0.58308190  0.88360001  1.0
  As  As8  1  0.50673233  0.19294341  0.33352283  1.0
  As  As9  1  0.50673233  0.30705659  0.83352283  1.0
  As  As10  1  0.49326767  0.69294341  0.16647717  1.0
  As  As11  1  0.49326767  0.80705659  0.66647717  1.0
  F  F12  1  0.75110732  0.67967811  0.26896688  1.0
  F  F13  1  0.75110732  0.82032189  0.76896688  1.0
  F  F14  1  0.24889268  0.17967811  0.23103312  1.0
  F  F15  1  0.24889268  0.32032189  0.73103312  1.0
  F  F16  1  0.76842497  0.20688432  0.43626891  1.0
  F  F17  1  0.76842497  0.29311568  0.93626891  1.0
  F  F18  1  0.23157503  0.70688432  0.06373109  1.0
  F  F19  1  0.23157503  0.79311568  0.56373109  1.0
  F  F20  1  0.69370357  0.17928609  0.19363539  1.0
  F  F21  1  0.69370357  0.32071391  0.69363539  1.0
  F  F22  1  0.30629643  0.67928609  0.30636461  1.0
  F  F23  1  0.30629643  0.82071391  0.80636461  1.0
  F  F24  1  0.51511791  0.04495935  0.35642298  1.0
  F  F25  1  0.51511791  0.45504065  0.85642298  1.0
  F  F26  1  0.48488209  0.54495935  0.14357702  1.0
  F  F27  1  0.48488209  0.95504065  0.64357702  1.0
  F  F28  1  0.50201999  0.34139899  0.31389720  1.0
  F  F29  1  0.50201999  0.15860101  0.81389720  1.0
  F  F30  1  0.49798001  0.84139899  0.18610280  1.0
  F  F31  1  0.49798001  0.65860101  0.68610280  1.0
  F  F32  1  0.32245269  0.20601373  0.47497764  1.0
  F  F33  1  0.32245269  0.29398627  0.97497764  1.0
  F  F34  1  0.67754731  0.70601373  0.02502236  1.0
  F  F35  1  0.67754731  0.79398627  0.52502236  1.0
