# generated using pymatgen
data_Rb3In(IO3)6
_symmetry_space_group_name_H-M   'P 1'
_cell_length_a   11.08431399
_cell_length_b   7.20178554
_cell_length_c   7.15834031
_cell_angle_alpha   71.91980378
_cell_angle_beta   68.99792725
_cell_angle_gamma   80.59517813
_symmetry_Int_Tables_number   1
_chemical_formula_structural   Rb3In(IO3)6
_chemical_formula_sum   'Rb3 In1 I6 O18'
_cell_volume   506.24811828
_cell_formula_units_Z   1
loop_
 _symmetry_equiv_pos_site_id
 _symmetry_equiv_pos_as_xyz
  1  'x, y, z'
loop_
 _atom_site_type_symbol
 _atom_site_label
 _atom_site_symmetry_multiplicity
 _atom_site_fract_x
 _atom_site_fract_y
 _atom_site_fract_z
 _atom_site_occupancy
  Rb  Rb0  1  -0.39964278  0.47420040  1.23287231  1.0
  Rb  Rb1  1  -0.60035722  0.52579960  0.76712769  1.0
  Rb  Rb2  1  0.00000000  0.50000000  -0.00000000  1.0
  In  In3  1  -0.00000000  -0.00000000  0.50000000  1.0
  I  I4  1  -0.19210878  0.97366531  1.16242958  1.0
  I  I5  1  -0.80789122  0.02633469  0.83757042  1.0
  I  I6  1  -0.80976063  0.53777092  1.36507701  1.0
  I  I7  1  -0.19023937  0.46222908  0.63492299  1.0
  I  I8  1  -0.36415137  0.95609203  0.77652787  1.0
  I  I9  1  -0.63584863  0.04390797  1.22347213  1.0
  O  O10  1  -0.67505564  0.94642766  1.62170298  1.0
  O  O11  1  -0.32494436  0.05357234  0.37829702  1.0
  O  O12  1  -0.81149689  0.30097775  1.73072113  1.0
  O  O13  1  -0.18850311  0.69902225  0.26927887  1.0
  O  O14  1  -0.95282705  0.95800590  1.78600292  1.0
  O  O15  1  -0.04717295  0.04199410  0.21399708  1.0
  O  O16  1  -0.67083525  0.65789858  1.36361197  1.0
  O  O17  1  -0.32916475  0.34210142  0.63638803  1.0
  O  O18  1  -0.39156010  0.94189986  1.06272110  1.0
  O  O19  1  -0.60843990  0.05810014  0.93727890  1.0
  O  O20  1  -0.95140463  0.67943665  1.52525159  1.0
  O  O21  1  -0.04859537  0.32056335  0.47474841  1.0
  O  O22  1  -0.18151757  0.89696933  0.72696684  1.0
  O  O23  1  -0.81848243  0.10303067  1.27303316  1.0
  O  O24  1  -0.39778184  0.69867850  0.80925511  1.0
  O  O25  1  -0.60221816  0.30132150  1.19074489  1.0
  O  O26  1  -0.81319121  0.65574335  1.09243682  1.0
  O  O27  1  -0.18680879  0.34425665  0.90756318  1.0
