# generated using pymatgen
data_Nb(PS4)2
_symmetry_space_group_name_H-M   'P 1'
_cell_length_a   11.77204710
_cell_length_b   11.77204710
_cell_length_c   11.52075961
_cell_angle_alpha   90.00000000
_cell_angle_beta   90.00000000
_cell_angle_gamma   61.52880819
_symmetry_Int_Tables_number   1
_chemical_formula_structural   Nb(PS4)2
_chemical_formula_sum   'Nb4 P8 S32'
_cell_volume   1403.46663377
_cell_formula_units_Z   4
loop_
 _symmetry_equiv_pos_site_id
 _symmetry_equiv_pos_as_xyz
  1  'x, y, z'
loop_
 _atom_site_type_symbol
 _atom_site_label
 _atom_site_symmetry_multiplicity
 _atom_site_fract_x
 _atom_site_fract_y
 _atom_site_fract_z
 _atom_site_occupancy
  Nb  Nb0  1  -0.07167109  0.92832891  0.00000000  1.0
  Nb  Nb1  1  0.42832891  0.42832891  0.50000000  1.0
  Nb  Nb2  1  0.07167109  0.07167109  0.00000000  1.0
  Nb  Nb3  1  -0.42832891  0.57167109  0.50000000  1.0
  P  P4  1  -0.00484803  0.62612033  0.98810839  1.0
  P  P5  1  -0.50484803  1.12612033  0.51189161  1.0
  P  P6  1  -0.37387967  0.99515197  0.01189161  1.0
  P  P7  1  0.12612033  0.49515197  0.48810839  1.0
  P  P8  1  -0.62612033  1.00484803  0.98810839  1.0
  P  P9  1  -0.12612033  0.50484803  0.51189161  1.0
  P  P10  1  0.00484803  0.37387967  0.01189161  1.0
  P  P11  1  -0.49515197  0.87387967  0.48810839  1.0
  S  S12  1  0.20395774  0.56727038  0.60304116  1.0
  S  S13  1  -0.29604226  1.06727038  0.89695884  1.0
  S  S14  1  -0.43272962  1.20395774  0.39695884  1.0
  S  S15  1  0.06727038  0.70395774  0.10304116  1.0
  S  S16  1  -0.56727038  0.79604226  0.60304116  1.0
  S  S17  1  -0.06727038  0.29604226  0.89695884  1.0
  S  S18  1  -0.20395774  0.43272962  0.39695884  1.0
  S  S19  1  -0.70395774  0.93272962  0.10304116  1.0
  S  S20  1  -0.09040134  0.75584160  0.86149406  1.0
  S  S21  1  -0.59040134  1.25584160  0.63850594  1.0
  S  S22  1  -0.24415840  0.90959866  0.13850594  1.0
  S  S23  1  0.25584160  0.40959866  0.36149406  1.0
  S  S24  1  -0.75584160  1.09040134  0.86149406  1.0
  S  S25  1  -0.25584160  0.59040134  0.63850594  1.0
  S  S26  1  0.09040134  0.24415840  0.13850594  1.0
  S  S27  1  -0.40959866  0.74415840  0.36149406  1.0
  S  S28  1  0.12953182  0.43847303  0.93092379  1.0
  S  S29  1  -0.37046818  0.93847303  0.56907621  1.0
  S  S30  1  -0.56152697  1.12953182  0.06907621  1.0
  S  S31  1  -0.06152697  0.62953182  0.43092379  1.0
  S  S32  1  -0.43847303  0.87046818  0.93092379  1.0
  S  S33  1  0.06152697  0.37046818  0.56907621  1.0
  S  S34  1  -0.12953182  0.56152697  0.06907621  1.0
  S  S35  1  -0.62953182  1.06152697  0.43092379  1.0
  S  S36  1  -0.86087292  0.86087292  0.89828019  1.0
  S  S37  1  -0.36087292  0.36087292  0.60171981  1.0
  S  S38  1  -0.13912708  0.13912708  0.10171981  1.0
  S  S39  1  -0.63912708  0.63912708  0.39828019  1.0
  S  S40  1  -0.51271609  0.51271609  0.67827160  1.0
  S  S41  1  -0.01271609  0.01271609  0.82172840  1.0
  S  S42  1  -0.48728391  0.48728391  0.32172840  1.0
  S  S43  1  -0.98728391  0.98728391  0.17827160  1.0
