# generated using pymatgen
data_GdMnO3
_symmetry_space_group_name_H-M   'P 1'
_cell_length_a   5.69528972
_cell_length_b   7.65453445
_cell_length_c   5.36474067
_cell_angle_alpha   90.00000000
_cell_angle_beta   90.00000000
_cell_angle_gamma   90.00000000
_symmetry_Int_Tables_number   1
_chemical_formula_structural   GdMnO3
_chemical_formula_sum   'Gd4 Mn4 O12'
_cell_volume   233.87475004
_cell_formula_units_Z   4
loop_
 _symmetry_equiv_pos_site_id
 _symmetry_equiv_pos_as_xyz
  1  'x, y, z'
loop_
 _atom_site_type_symbol
 _atom_site_label
 _atom_site_symmetry_multiplicity
 _atom_site_fract_x
 _atom_site_fract_y
 _atom_site_fract_z
 _atom_site_occupancy
  Gd  Gd0  1  0.06836346  0.75000000  0.51673953  1.0
  Gd  Gd1  1  0.56836346  0.75000000  0.98326047  1.0
  Gd  Gd2  1  0.93163654  0.25000000  0.48326047  1.0
  Gd  Gd3  1  0.43163654  0.25000000  0.01673953  1.0
  Mn  Mn4  1  0.50000000  0.00000000  0.50000000  1.0
  Mn  Mn5  1  0.50000000  0.50000000  0.50000000  1.0
  Mn  Mn6  1  0.00000000  0.00000000  0.00000000  1.0
  Mn  Mn7  1  0.00000000  0.50000000  0.00000000  1.0
  O  O8  1  0.30727186  0.94866900  0.79684074  1.0
  O  O9  1  0.30727186  0.55133100  0.79684074  1.0
  O  O10  1  0.80727186  0.94866900  0.70315926  1.0
  O  O11  1  0.80727186  0.55133100  0.70315926  1.0
  O  O12  1  0.69272814  0.44866900  0.20315926  1.0
  O  O13  1  0.69272814  0.05133100  0.20315926  1.0
  O  O14  1  0.19272814  0.44866900  0.29684074  1.0
  O  O15  1  0.19272814  0.05133100  0.29684074  1.0
  O  O16  1  0.96972877  0.75000000  0.10021332  1.0
  O  O17  1  0.46972877  0.75000000  0.39978668  1.0
  O  O18  1  0.03027123  0.25000000  0.89978668  1.0
  O  O19  1  0.53027123  0.25000000  0.60021332  1.0
