# generated using pymatgen
data_Pb4IF7
_symmetry_space_group_name_H-M   'P 1'
_cell_length_a   13.11912724
_cell_length_b   13.11912724
_cell_length_c   6.08142509
_cell_angle_alpha   90.00000000
_cell_angle_beta   90.00000000
_cell_angle_gamma   152.63653442
_symmetry_Int_Tables_number   1
_chemical_formula_structural   Pb4IF7
_chemical_formula_sum   'Pb8 I2 F14'
_cell_volume   481.09074179
_cell_formula_units_Z   2
loop_
 _symmetry_equiv_pos_site_id
 _symmetry_equiv_pos_as_xyz
  1  'x, y, z'
loop_
 _atom_site_type_symbol
 _atom_site_label
 _atom_site_symmetry_multiplicity
 _atom_site_fract_x
 _atom_site_fract_y
 _atom_site_fract_z
 _atom_site_occupancy
  Pb  Pb0  1  0.05899482  0.94100518  0.75000000  1.0
  Pb  Pb1  1  -0.05899482  0.05899482  0.25000000  1.0
  Pb  Pb2  1  0.45505877  0.54494123  0.75000000  1.0
  Pb  Pb3  1  -0.45505877  0.45505877  0.25000000  1.0
  Pb  Pb4  1  -0.34869898  0.34869898  0.75000000  1.0
  Pb  Pb5  1  0.34869898  0.65130102  0.25000000  1.0
  Pb  Pb6  1  -0.17363599  0.17363599  0.75000000  1.0
  Pb  Pb7  1  0.17363599  0.82636401  0.25000000  1.0
  I  I8  1  0.25085528  0.74914472  0.75000000  1.0
  I  I9  1  -0.25085528  0.25085528  0.25000000  1.0
  F  F10  1  0.10954809  0.35122971  0.98329454  1.0
  F  F11  1  0.10954809  0.35122971  0.51670546  1.0
  F  F12  1  0.35122971  1.10954809  0.48329454  1.0
  F  F13  1  0.35122971  1.10954809  0.01670546  1.0
  F  F14  1  0.64877029  0.89045191  0.98329454  1.0
  F  F15  1  0.64877029  0.89045191  0.51670546  1.0
  F  F16  1  -0.10954809  0.64877029  0.48329454  1.0
  F  F17  1  -0.10954809  0.64877029  0.01670546  1.0
  F  F18  1  0.77390478  0.77390478  0.00000000  1.0
  F  F19  1  0.77390478  0.77390478  0.50000000  1.0
  F  F20  1  0.22609522  0.22609522  0.00000000  1.0
  F  F21  1  0.22609522  0.22609522  0.50000000  1.0
  F  F22  1  -0.43915991  0.43915991  0.75000000  1.0
  F  F23  1  0.43915991  0.56084009  0.25000000  1.0
