# generated using pymatgen
data_La2CuO4
_symmetry_space_group_name_H-M   'P 1'
_cell_length_a   7.15090734
_cell_length_b   7.15090734
_cell_length_c   7.15090734
_cell_angle_alpha   149.06035007
_cell_angle_beta   149.06035007
_cell_angle_gamma   44.32248149
_symmetry_Int_Tables_number   1
_chemical_formula_structural   La2CuO4
_chemical_formula_sum   'La2 Cu1 O4'
_cell_volume   96.37401897
_cell_formula_units_Z   1
loop_
 _symmetry_equiv_pos_site_id
 _symmetry_equiv_pos_as_xyz
  1  'x, y, z'
loop_
 _atom_site_type_symbol
 _atom_site_label
 _atom_site_symmetry_multiplicity
 _atom_site_fract_x
 _atom_site_fract_y
 _atom_site_fract_z
 _atom_site_occupancy
  La  La0  1  0.63892600  0.63892600  1.00000000  1.0
  La  La1  1  0.36107400  0.36107400  0.00000000  1.0
  Cu  Cu2  1  0.00000000  0.00000000  0.00000000  1.0
  O  O3  1  0.50000000  0.00000000  0.50000000  1.0
  O  O4  1  0.00000000  0.50000000  0.50000000  1.0
  O  O5  1  0.81418846  0.81418846  1.00000000  1.0
  O  O6  1  0.18581154  0.18581154  0.00000000  1.0
