# generated using pymatgen
data_RbLaSiS4
_symmetry_space_group_name_H-M   'P 1'
_cell_length_a   17.58337891
_cell_length_b   6.69940605
_cell_length_c   6.64603033
_cell_angle_alpha   90.00000000
_cell_angle_beta   90.00000000
_cell_angle_gamma   90.00000000
_symmetry_Int_Tables_number   1
_chemical_formula_structural   RbLaSiS4
_chemical_formula_sum   'Rb4 La4 Si4 S16'
_cell_volume   782.89037753
_cell_formula_units_Z   4
loop_
 _symmetry_equiv_pos_site_id
 _symmetry_equiv_pos_as_xyz
  1  'x, y, z'
loop_
 _atom_site_type_symbol
 _atom_site_label
 _atom_site_symmetry_multiplicity
 _atom_site_fract_x
 _atom_site_fract_y
 _atom_site_fract_z
 _atom_site_occupancy
  Rb  Rb0  1  0.71654157  0.25000000  0.96201758  1.0
  Rb  Rb1  1  0.21654157  0.25000000  0.53798242  1.0
  Rb  Rb2  1  0.28345843  0.75000000  0.03798242  1.0
  Rb  Rb3  1  0.78345843  0.75000000  0.46201758  1.0
  La  La4  1  0.97511415  0.25000000  0.78649446  1.0
  La  La5  1  0.47511415  0.25000000  0.71350554  1.0
  La  La6  1  0.02488585  0.75000000  0.21350554  1.0
  La  La7  1  0.52488585  0.75000000  0.28649446  1.0
  Si  Si8  1  0.91204373  0.25000000  0.28448679  1.0
  Si  Si9  1  0.41204373  0.25000000  0.21551321  1.0
  Si  Si10  1  0.08795627  0.75000000  0.71551321  1.0
  Si  Si11  1  0.58795627  0.75000000  0.78448679  1.0
  S  S12  1  0.89335664  0.99983191  0.09062085  1.0
  S  S13  1  0.89335664  0.50016809  0.09062085  1.0
  S  S14  1  0.39335664  0.99983191  0.40937915  1.0
  S  S15  1  0.39335664  0.50016809  0.40937915  1.0
  S  S16  1  0.10664336  0.49983191  0.90937915  1.0
  S  S17  1  0.10664336  0.00016809  0.90937915  1.0
  S  S18  1  0.60664336  0.49983191  0.59062085  1.0
  S  S19  1  0.60664336  0.00016809  0.59062085  1.0
  S  S20  1  0.83900223  0.25000000  0.53763676  1.0
  S  S21  1  0.33900223  0.25000000  0.96236324  1.0
  S  S22  1  0.16099777  0.75000000  0.46236324  1.0
  S  S23  1  0.66099777  0.75000000  0.03763676  1.0
  S  S24  1  0.52952129  0.25000000  0.12963441  1.0
  S  S25  1  0.02952129  0.25000000  0.37036559  1.0
  S  S26  1  0.47047871  0.75000000  0.87036559  1.0
  S  S27  1  0.97047871  0.75000000  0.62963441  1.0
