# generated using pymatgen
data_Ti6Al16Pd7
_symmetry_space_group_name_H-M   'P 1'
_cell_length_a   8.64919977
_cell_length_b   8.64919977
_cell_length_c   8.64919977
_cell_angle_alpha   60.00000000
_cell_angle_beta   60.00000000
_cell_angle_gamma   60.00000000
_symmetry_Int_Tables_number   1
_chemical_formula_structural   Ti6Al16Pd7
_chemical_formula_sum   'Ti6 Al16 Pd7'
_cell_volume   457.52284808
_cell_formula_units_Z   1
loop_
 _symmetry_equiv_pos_site_id
 _symmetry_equiv_pos_as_xyz
  1  'x, y, z'
loop_
 _atom_site_type_symbol
 _atom_site_label
 _atom_site_symmetry_multiplicity
 _atom_site_fract_x
 _atom_site_fract_y
 _atom_site_fract_z
 _atom_site_occupancy
  Ti  Ti0  1  -0.67339720  0.67339720  0.67339720  1.0
  Ti  Ti1  1  -0.32660280  0.32660280  0.67339720  1.0
  Ti  Ti2  1  0.67339720  0.67339720  -0.67339720  1.0
  Ti  Ti3  1  0.32660280  1.32660280  -0.32660280  1.0
  Ti  Ti4  1  0.32660280  -0.32660280  1.32660280  1.0
  Ti  Ti5  1  -0.32660280  0.32660280  0.32660280  1.0
  Al  Al6  1  0.87955242  0.87955242  -0.12044758  1.0
  Al  Al7  1  1.12044758  0.12044758  0.63865725  1.0
  Al  Al8  1  1.12044758  0.63865725  0.12044758  1.0
  Al  Al9  1  0.36134275  0.87955242  -0.12044758  1.0
  Al  Al10  1  1.63865725  0.12044758  0.12044758  1.0
  Al  Al11  1  0.87955242  0.36134275  -0.12044758  1.0
  Al  Al12  1  0.87955242  0.87955242  -0.63865725  1.0
  Al  Al13  1  1.12044758  0.12044758  0.12044758  1.0
  Al  Al14  1  0.66090370  0.66090370  -0.33909630  1.0
  Al  Al15  1  1.33909630  0.33909630  -0.01728890  1.0
  Al  Al16  1  1.33909630  -0.01728890  0.33909630  1.0
  Al  Al17  1  1.01728890  0.66090370  -0.33909630  1.0
  Al  Al18  1  0.98271110  0.33909630  0.33909630  1.0
  Al  Al19  1  0.66090370  1.01728890  -0.33909630  1.0
  Al  Al20  1  0.66090370  0.66090370  0.01728890  1.0
  Al  Al21  1  1.33909630  0.33909630  0.33909630  1.0
  Pd  Pd22  1  1.50000000  -0.00000000  0.00000000  1.0
  Pd  Pd23  1  1.00000000  0.50000000  -0.50000000  1.0
  Pd  Pd24  1  -0.00000000  1.50000000  0.00000000  1.0
  Pd  Pd25  1  0.50000000  1.00000000  -0.50000000  1.0
  Pd  Pd26  1  0.00000000  -0.00000000  0.50000000  1.0
  Pd  Pd27  1  0.50000000  -0.50000000  1.00000000  1.0
  Pd  Pd28  1  0.00000000  0.00000000  0.00000000  1.0
