# generated using pymatgen
data_Ca
_symmetry_space_group_name_H-M   'P 1'
_cell_length_a   10.09906025
_cell_length_b   10.09906025
_cell_length_c   10.09906025
_cell_angle_alpha   123.47543842
_cell_angle_beta   123.47543842
_cell_angle_gamma   84.07889512
_symmetry_Int_Tables_number   1
_chemical_formula_structural   Ca
_chemical_formula_sum   Ca16
_cell_volume   686.06051122
_cell_formula_units_Z   16
loop_
 _symmetry_equiv_pos_site_id
 _symmetry_equiv_pos_as_xyz
  1  'x, y, z'
loop_
 _atom_site_type_symbol
 _atom_site_label
 _atom_site_symmetry_multiplicity
 _atom_site_fract_x
 _atom_site_fract_y
 _atom_site_fract_z
 _atom_site_occupancy
  Ca  Ca0  1  0.68655237  1.18655237  1.19769340  1.0
  Ca  Ca1  1  1.01114102  0.51114102  1.19769340  1.0
  Ca  Ca2  1  0.48885898  0.68655237  0.50000000  1.0
  Ca  Ca3  1  0.81344763  1.01114102  1.50000000  1.0
  Ca  Ca4  1  1.18655237  0.98885898  1.50000000  1.0
  Ca  Ca5  1  0.51114102  0.31344763  0.50000000  1.0
  Ca  Ca6  1  0.98885898  0.48885898  0.80230660  1.0
  Ca  Ca7  1  0.31344763  0.81344763  0.80230660  1.0
  Ca  Ca8  1  0.35563127  0.85563127  1.21126254  1.0
  Ca  Ca9  1  0.14436873  0.35563127  0.50000000  1.0
  Ca  Ca10  1  0.85563127  0.64436873  1.50000000  1.0
  Ca  Ca11  1  0.64436873  0.14436873  0.78873746  1.0
  Ca  Ca12  1  0.00000000  0.00000000  0.00000000  1.0
  Ca  Ca13  1  0.50000000  0.50000000  1.00000000  1.0
  Ca  Ca14  1  0.75000000  0.75000000  1.00000000  1.0
  Ca  Ca15  1  0.25000000  0.25000000  0.00000000  1.0
