# generated using pymatgen
data_PdSO4
_symmetry_space_group_name_H-M   'P 1'
_cell_length_a   4.77564752
_cell_length_b   4.77564752
_cell_length_c   4.77564752
_cell_angle_alpha   102.18329190
_cell_angle_beta   102.18329190
_cell_angle_gamma   125.30441255
_symmetry_Int_Tables_number   1
_chemical_formula_structural   PdSO4
_chemical_formula_sum   'Pd1 S1 O4'
_cell_volume   78.95216630
_cell_formula_units_Z   1
loop_
 _symmetry_equiv_pos_site_id
 _symmetry_equiv_pos_as_xyz
  1  'x, y, z'
loop_
 _atom_site_type_symbol
 _atom_site_label
 _atom_site_symmetry_multiplicity
 _atom_site_fract_x
 _atom_site_fract_y
 _atom_site_fract_z
 _atom_site_occupancy
  Pd  Pd0  1  0.00000000  0.00000000  0.00000000  1.0
  S  S1  1  0.75000000  0.25000000  0.50000000  1.0
  O  O2  1  0.37648298  0.94674272  1.21981344  1.0
  O  O3  1  0.72692928  0.15666954  0.78018656  1.0
  O  O4  1  1.05325728  1.27307072  1.42974026  1.0
  O  O5  1  0.84333046  0.62351702  0.57025974  1.0
