# generated using pymatgen
data_Na5Al3F14
_symmetry_space_group_name_H-M   'P 1'
_cell_length_a   7.14364305
_cell_length_b   7.14364305
_cell_length_c   10.60396398
_cell_angle_alpha   90.00000000
_cell_angle_beta   90.00000000
_cell_angle_gamma   90.00000000
_symmetry_Int_Tables_number   1
_chemical_formula_structural   Na5Al3F14
_chemical_formula_sum   'Na10 Al6 F28'
_cell_volume   541.13763065
_cell_formula_units_Z   2
loop_
 _symmetry_equiv_pos_site_id
 _symmetry_equiv_pos_as_xyz
  1  'x, y, z'
loop_
 _atom_site_type_symbol
 _atom_site_label
 _atom_site_symmetry_multiplicity
 _atom_site_fract_x
 _atom_site_fract_y
 _atom_site_fract_z
 _atom_site_occupancy
  Na  Na0  1  0.27412429  0.22587571  0.25000000  1.0
  Na  Na1  1  0.27412429  0.22587571  0.75000000  1.0
  Na  Na2  1  0.77412429  0.27412429  0.75000000  1.0
  Na  Na3  1  0.77412429  0.27412429  0.25000000  1.0
  Na  Na4  1  0.72587571  0.77412429  0.25000000  1.0
  Na  Na5  1  0.72587571  0.77412429  0.75000000  1.0
  Na  Na6  1  0.22587571  0.72587571  0.75000000  1.0
  Na  Na7  1  0.22587571  0.72587571  0.25000000  1.0
  Na  Na8  1  0.50000000  0.50000000  0.00000000  1.0
  Na  Na9  1  0.00000000  0.00000000  0.50000000  1.0
  Al  Al10  1  0.50000000  0.00000000  0.50000000  1.0
  Al  Al11  1  0.00000000  0.50000000  0.00000000  1.0
  Al  Al12  1  0.00000000  0.50000000  0.50000000  1.0
  Al  Al13  1  0.50000000  0.00000000  0.00000000  1.0
  Al  Al14  1  0.50000000  0.50000000  0.50000000  1.0
  Al  Al15  1  0.00000000  0.00000000  0.00000000  1.0
  F  F16  1  0.46657653  0.82006060  0.11983293  1.0
  F  F17  1  0.46657653  0.82006060  0.88016707  1.0
  F  F18  1  0.96657653  0.67993940  0.61983293  1.0
  F  F19  1  0.96657653  0.67993940  0.38016707  1.0
  F  F20  1  0.17993940  0.46657653  0.11983293  1.0
  F  F21  1  0.17993940  0.46657653  0.88016707  1.0
  F  F22  1  0.67993940  0.03342347  0.61983293  1.0
  F  F23  1  0.67993940  0.03342347  0.38016707  1.0
  F  F24  1  0.53342347  0.17993940  0.11983293  1.0
  F  F25  1  0.53342347  0.17993940  0.88016707  1.0
  F  F26  1  0.03342347  0.32006060  0.61983293  1.0
  F  F27  1  0.03342347  0.32006060  0.38016707  1.0
  F  F28  1  0.82006060  0.53342347  0.11983293  1.0
  F  F29  1  0.82006060  0.53342347  0.88016707  1.0
  F  F30  1  0.32006060  0.96657653  0.61983293  1.0
  F  F31  1  0.32006060  0.96657653  0.38016707  1.0
  F  F32  1  0.25201806  0.56096883  0.50000000  1.0
  F  F33  1  0.75201806  0.93903117  0.00000000  1.0
  F  F34  1  0.43903117  0.25201806  0.50000000  1.0
  F  F35  1  0.93903117  0.24798194  0.00000000  1.0
  F  F36  1  0.74798194  0.43903117  0.50000000  1.0
  F  F37  1  0.24798194  0.06096883  0.00000000  1.0
  F  F38  1  0.56096883  0.74798194  0.50000000  1.0
  F  F39  1  0.06096883  0.75201806  0.00000000  1.0
  F  F40  1  0.50000000  0.50000000  0.32899293  1.0
  F  F41  1  0.50000000  0.50000000  0.67100707  1.0
  F  F42  1  0.00000000  0.00000000  0.82899293  1.0
  F  F43  1  0.00000000  0.00000000  0.17100707  1.0
