# generated using pymatgen
data_XeF2
_symmetry_space_group_name_H-M   'P 1'
_cell_length_a   4.51826451
_cell_length_b   4.51826451
_cell_length_c   4.51826451
_cell_angle_alpha   122.13631819
_cell_angle_beta   122.13631819
_cell_angle_gamma   86.33797543
_symmetry_Int_Tables_number   1
_chemical_formula_structural   XeF2
_chemical_formula_sum   'Xe1 F2'
_cell_volume   62.97673968
_cell_formula_units_Z   1
loop_
 _symmetry_equiv_pos_site_id
 _symmetry_equiv_pos_as_xyz
  1  'x, y, z'
loop_
 _atom_site_type_symbol
 _atom_site_label
 _atom_site_symmetry_multiplicity
 _atom_site_fract_x
 _atom_site_fract_y
 _atom_site_fract_z
 _atom_site_occupancy
  Xe  Xe0  1  0.00000000  0.00000000  0.00000000  1.0
  F  F1  1  0.75000000  0.25000000  0.50000000  1.0
  F  F2  1  0.25000000  0.75000000  0.50000000  1.0
