# generated using pymatgen
data_Bi2Te2W3O16
_symmetry_space_group_name_H-M   'P 1'
_cell_length_a   11.14101657
_cell_length_b   11.14101657
_cell_length_c   13.03668743
_cell_angle_alpha   57.44658773
_cell_angle_beta   122.55341227
_cell_angle_gamma   150.53980503
_symmetry_Int_Tables_number   1
_chemical_formula_structural   Bi2Te2W3O16
_chemical_formula_sum   'Bi4 Te4 W6 O32'
_cell_volume   661.28472333
_cell_formula_units_Z   2
loop_
 _symmetry_equiv_pos_site_id
 _symmetry_equiv_pos_as_xyz
  1  'x, y, z'
loop_
 _atom_site_type_symbol
 _atom_site_label
 _atom_site_symmetry_multiplicity
 _atom_site_fract_x
 _atom_site_fract_y
 _atom_site_fract_z
 _atom_site_occupancy
  Bi  Bi0  1  0.46413526  -0.09501418  0.15863080  1.0
  Bi  Bi1  1  1.09501418  -0.46413526  0.65863080  1.0
  Bi  Bi2  1  0.90498582  0.46413526  0.34136920  1.0
  Bi  Bi3  1  1.53586474  0.09501418  0.84136920  1.0
  Te  Te4  1  0.29895473  0.11114546  0.15370863  1.0
  Te  Te5  1  0.88885454  -0.29895473  0.65370863  1.0
  Te  Te6  1  1.11114546  0.29895473  0.34629137  1.0
  Te  Te7  1  1.70104527  -0.11114546  0.84629137  1.0
  W  W8  1  0.48546029  0.23169919  0.46369956  1.0
  W  W9  1  0.76830081  0.51453971  0.96369956  1.0
  W  W10  1  1.23169919  -0.51453971  0.03630044  1.0
  W  W11  1  1.51453971  -0.23169919  0.53630044  1.0
  W  W12  1  0.86507967  0.86507967  0.25000000  1.0
  W  W13  1  0.13492033  0.13492033  0.75000000  1.0
  O  O14  1  1.61546127  -0.29139270  0.12399918  1.0
  O  O15  1  1.29139270  -0.61546127  0.62399918  1.0
  O  O16  1  0.70860730  0.61546127  0.37600082  1.0
  O  O17  1  0.38453873  0.29139270  0.87600082  1.0
  O  O18  1  1.83383279  0.00615260  0.25723913  1.0
  O  O19  1  0.99384740  -0.83383279  0.75723913  1.0
  O  O20  1  1.00615260  0.83383279  0.24276087  1.0
  O  O21  1  0.16616721  -0.00615260  0.74276087  1.0
  O  O22  1  0.42894486  -0.32083242  0.40142780  1.0
  O  O23  1  1.32083242  -0.42894486  0.90142780  1.0
  O  O24  1  0.67916758  0.42894486  0.09857220  1.0
  O  O25  1  1.57105514  0.32083242  0.59857220  1.0
  O  O26  1  0.67364359  0.06252269  0.47012667  1.0
  O  O27  1  0.93747731  -0.67364359  0.97012667  1.0
  O  O28  1  1.06252269  0.67364359  0.02987333  1.0
  O  O29  1  1.32635641  -0.06252269  0.52987333  1.0
  O  O30  1  0.57992744  0.18904242  0.99181725  1.0
  O  O31  1  0.81095758  0.42007256  0.49181725  1.0
  O  O32  1  1.18904242  -0.42007256  0.50818275  1.0
  O  O33  1  1.42007256  -0.18904242  0.00818275  1.0
  O  O34  1  0.29377421  -0.09706469  0.22071388  1.0
  O  O35  1  1.09706469  -0.29377421  0.72071388  1.0
  O  O36  1  0.90293531  0.29377421  0.27928612  1.0
  O  O37  1  1.70622579  0.09706469  0.77928612  1.0
  O  O38  1  0.52026645  0.27844259  0.29754099  1.0
  O  O39  1  0.72155741  0.47973355  0.79754099  1.0
  O  O40  1  1.27844259  -0.47973355  0.20245901  1.0
  O  O41  1  1.47973355  -0.27844259  0.70245901  1.0
  O  O42  1  0.20657484  0.12286008  0.37679841  1.0
  O  O43  1  0.87713992  0.79342516  0.87679841  1.0
  O  O44  1  1.12286008  -0.79342516  0.12320159  1.0
  O  O45  1  1.79342516  -0.12286008  0.62320159  1.0
