# generated using pymatgen
data_TiIn2O5
_symmetry_space_group_name_H-M   'P 1'
_cell_length_a   7.38096677
_cell_length_b   3.52713663
_cell_length_c   15.16660013
_cell_angle_alpha   90.00000000
_cell_angle_beta   90.00000000
_cell_angle_gamma   90.00000000
_symmetry_Int_Tables_number   1
_chemical_formula_structural   TiIn2O5
_chemical_formula_sum   'Ti4 In8 O20'
_cell_volume   394.84238832
_cell_formula_units_Z   4
loop_
 _symmetry_equiv_pos_site_id
 _symmetry_equiv_pos_as_xyz
  1  'x, y, z'
loop_
 _atom_site_type_symbol
 _atom_site_label
 _atom_site_symmetry_multiplicity
 _atom_site_fract_x
 _atom_site_fract_y
 _atom_site_fract_z
 _atom_site_occupancy
  Ti  Ti0  1  0.60791691  0.75000000  0.07823505  1.0
  Ti  Ti1  1  0.10791691  0.75000000  0.42176495  1.0
  Ti  Ti2  1  0.39208309  0.25000000  0.92176495  1.0
  Ti  Ti3  1  0.89208309  0.25000000  0.57823505  1.0
  In  In4  1  0.67419988  0.75000000  0.76025670  1.0
  In  In5  1  0.17419988  0.75000000  0.73974330  1.0
  In  In6  1  0.32580012  0.25000000  0.23974330  1.0
  In  In7  1  0.82580012  0.25000000  0.26025670  1.0
  In  In8  1  0.60052666  0.75000000  0.41692512  1.0
  In  In9  1  0.10052666  0.75000000  0.08307488  1.0
  In  In10  1  0.39947334  0.25000000  0.58307488  1.0
  In  In11  1  0.89947334  0.25000000  0.91692512  1.0
  O  O12  1  0.94055602  0.75000000  0.82459678  1.0
  O  O13  1  0.44055602  0.75000000  0.67540322  1.0
  O  O14  1  0.05944398  0.25000000  0.17540322  1.0
  O  O15  1  0.55944398  0.25000000  0.32459678  1.0
  O  O16  1  0.92633479  0.75000000  0.54597019  1.0
  O  O17  1  0.42633479  0.75000000  0.95402981  1.0
  O  O18  1  0.07366521  0.25000000  0.45402981  1.0
  O  O19  1  0.57366521  0.25000000  0.04597019  1.0
  O  O20  1  0.87096842  0.75000000  0.35111921  1.0
  O  O21  1  0.37096842  0.75000000  0.14888079  1.0
  O  O22  1  0.12903158  0.25000000  0.64888079  1.0
  O  O23  1  0.62903158  0.25000000  0.85111921  1.0
  O  O24  1  0.84572671  0.75000000  0.00508198  1.0
  O  O25  1  0.34572671  0.75000000  0.49491802  1.0
  O  O26  1  0.15427329  0.25000000  0.99491802  1.0
  O  O27  1  0.65427329  0.25000000  0.50508198  1.0
  O  O28  1  0.73731065  0.75000000  0.18000929  1.0
  O  O29  1  0.23731065  0.75000000  0.31999071  1.0
  O  O30  1  0.26268935  0.25000000  0.81999071  1.0
  O  O31  1  0.76268935  0.25000000  0.68000929  1.0
