# generated using pymatgen
data_SiO2
_symmetry_space_group_name_H-M   'P 1'
_cell_length_a   7.23551716
_cell_length_b   7.23551716
_cell_length_c   7.23551716
_cell_angle_alpha   90.00000000
_cell_angle_beta   90.00000000
_cell_angle_gamma   90.00000000
_symmetry_Int_Tables_number   1
_chemical_formula_structural   SiO2
_chemical_formula_sum   'Si8 O16'
_cell_volume   378.79892100
_cell_formula_units_Z   8
loop_
 _symmetry_equiv_pos_site_id
 _symmetry_equiv_pos_as_xyz
  1  'x, y, z'
loop_
 _atom_site_type_symbol
 _atom_site_label
 _atom_site_symmetry_multiplicity
 _atom_site_fract_x
 _atom_site_fract_y
 _atom_site_fract_z
 _atom_site_occupancy
  Si  Si0  1  0.27653280  0.77653280  0.72346720  1.0
  Si  Si1  1  0.77653280  0.72346720  0.27653280  1.0
  Si  Si2  1  0.72346720  0.27653280  0.77653280  1.0
  Si  Si3  1  0.22346720  0.22346720  0.22346720  1.0
  Si  Si4  1  1.01843456  0.51843456  -0.01843456  1.0
  Si  Si5  1  0.51843456  -0.01843456  1.01843456  1.0
  Si  Si6  1  -0.01843456  1.01843456  0.51843456  1.0
  Si  Si7  1  0.48156544  0.48156544  0.48156544  1.0
  O  O8  1  0.44738324  0.86039697  0.84293517  1.0
  O  O9  1  0.94738324  0.63960303  0.15706483  1.0
  O  O10  1  0.36039697  0.65706483  0.55261676  1.0
  O  O11  1  0.86039697  0.84293517  0.44738324  1.0
  O  O12  1  0.15706483  0.94738324  0.63960303  1.0
  O  O13  1  0.65706483  0.55261676  0.36039697  1.0
  O  O14  1  0.55261676  0.36039697  0.65706483  1.0
  O  O15  1  0.05261676  0.13960303  0.34293517  1.0
  O  O16  1  0.63960303  0.15706483  0.94738324  1.0
  O  O17  1  0.13960303  0.34293517  0.05261676  1.0
  O  O18  1  0.84293517  0.44738324  0.86039697  1.0
  O  O19  1  0.34293517  0.05261676  0.13960303  1.0
  O  O20  1  0.14743121  0.64743121  0.85256879  1.0
  O  O21  1  0.64743121  0.85256879  0.14743121  1.0
  O  O22  1  0.85256879  0.14743121  0.64743121  1.0
  O  O23  1  0.35256879  0.35256879  0.35256879  1.0
