# generated using pymatgen
data_SrNCl2
_symmetry_space_group_name_H-M   'P 1'
_cell_length_a   7.69171963
_cell_length_b   7.69171963
_cell_length_c   7.45141956
_cell_angle_alpha   90.00000000
_cell_angle_beta   90.00000000
_cell_angle_gamma   146.72358347
_symmetry_Int_Tables_number   1
_chemical_formula_structural   SrNCl2
_chemical_formula_sum   'Sr2 N2 Cl4'
_cell_volume   241.88227530
_cell_formula_units_Z   2
loop_
 _symmetry_equiv_pos_site_id
 _symmetry_equiv_pos_as_xyz
  1  'x, y, z'
loop_
 _atom_site_type_symbol
 _atom_site_label
 _atom_site_symmetry_multiplicity
 _atom_site_fract_x
 _atom_site_fract_y
 _atom_site_fract_z
 _atom_site_occupancy
  Sr  Sr0  1  -0.30270713  0.30270713  0.75000000  1.0
  Sr  Sr1  1  0.30270713  0.69729287  0.25000000  1.0
  N  N2  1  0.48977641  0.51022359  0.75000000  1.0
  N  N3  1  -0.48977641  0.48977641  0.25000000  1.0
  Cl  Cl4  1  0.15088951  0.84911049  0.99373659  1.0
  Cl  Cl5  1  0.15088951  0.84911049  0.50626341  1.0
  Cl  Cl6  1  -0.15088951  0.15088951  0.49373659  1.0
  Cl  Cl7  1  -0.15088951  0.15088951  0.00626341  1.0
