# generated using pymatgen
data_Y2S3
_symmetry_space_group_name_H-M   'P 1'
_cell_length_a   10.64826343
_cell_length_b   3.87432578
_cell_length_c   10.49050650
_cell_angle_alpha   90.00000000
_cell_angle_beta   90.00000000
_cell_angle_gamma   90.00000000
_symmetry_Int_Tables_number   1
_chemical_formula_structural   Y2S3
_chemical_formula_sum   'Y8 S12'
_cell_volume   432.78418296
_cell_formula_units_Z   4
loop_
 _symmetry_equiv_pos_site_id
 _symmetry_equiv_pos_as_xyz
  1  'x, y, z'
loop_
 _atom_site_type_symbol
 _atom_site_label
 _atom_site_symmetry_multiplicity
 _atom_site_fract_x
 _atom_site_fract_y
 _atom_site_fract_z
 _atom_site_occupancy
  Y  Y0  1  0.49014860  0.75000000  0.18694111  1.0
  Y  Y1  1  0.99014860  0.75000000  0.31305889  1.0
  Y  Y2  1  0.50985140  0.25000000  0.81305889  1.0
  Y  Y3  1  0.00985140  0.25000000  0.68694111  1.0
  Y  Y4  1  0.30812283  0.75000000  0.50396268  1.0
  Y  Y5  1  0.80812283  0.75000000  0.99603732  1.0
  Y  Y6  1  0.69187717  0.25000000  0.49603732  1.0
  Y  Y7  1  0.19187717  0.25000000  0.00396268  1.0
  S  S8  1  0.38080606  0.75000000  0.94456557  1.0
  S  S9  1  0.88080606  0.75000000  0.55543443  1.0
  S  S10  1  0.61919394  0.25000000  0.05543443  1.0
  S  S11  1  0.11919394  0.25000000  0.44456557  1.0
  S  S12  1  0.22761281  0.75000000  0.19537430  1.0
  S  S13  1  0.72761281  0.75000000  0.30462570  1.0
  S  S14  1  0.77238719  0.25000000  0.80462570  1.0
  S  S15  1  0.27238719  0.25000000  0.69537430  1.0
  S  S16  1  0.04596083  0.75000000  0.87326414  1.0
  S  S17  1  0.54596083  0.75000000  0.62673586  1.0
  S  S18  1  0.95403917  0.25000000  0.12673586  1.0
  S  S19  1  0.45403917  0.25000000  0.37326414  1.0
