# generated using pymatgen
data_SrV4(AgO6)2
_symmetry_space_group_name_H-M   'P 1'
_cell_length_a   10.68197453
_cell_length_b   10.68197453
_cell_length_c   5.05046042
_cell_angle_alpha   90.00000000
_cell_angle_beta   90.00000000
_cell_angle_gamma   90.00000000
_symmetry_Int_Tables_number   1
_chemical_formula_structural   SrV4(AgO6)2
_chemical_formula_sum   'Sr2 V8 Ag4 O24'
_cell_volume   576.28066410
_cell_formula_units_Z   2
loop_
 _symmetry_equiv_pos_site_id
 _symmetry_equiv_pos_as_xyz
  1  'x, y, z'
loop_
 _atom_site_type_symbol
 _atom_site_label
 _atom_site_symmetry_multiplicity
 _atom_site_fract_x
 _atom_site_fract_y
 _atom_site_fract_z
 _atom_site_occupancy
  Sr  Sr0  1  0.50000000  0.50000000  0.50000000  1.0
  Sr  Sr1  1  0.00000000  0.00000000  0.50000000  1.0
  V  V2  1  0.50000000  0.78378731  0.00000000  1.0
  V  V3  1  0.00000000  0.71621269  -0.00000000  1.0
  V  V4  1  0.00000000  0.28378731  0.00000000  1.0
  V  V5  1  0.50000000  0.21621269  0.00000000  1.0
  V  V6  1  0.78378731  0.50000000  -0.00000000  1.0
  V  V7  1  0.71621269  0.00000000  -0.00000000  1.0
  V  V8  1  0.28378731  0.00000000  -0.00000000  1.0
  V  V9  1  0.21621269  0.50000000  -0.00000000  1.0
  Ag  Ag10  1  0.25000000  0.25000000  0.50000000  1.0
  Ag  Ag11  1  0.75000000  0.25000000  0.50000000  1.0
  Ag  Ag12  1  0.25000000  0.75000000  0.50000000  1.0
  Ag  Ag13  1  0.75000000  0.75000000  0.50000000  1.0
  O  O14  1  0.61666169  0.88333831  0.14963176  1.0
  O  O15  1  0.11666169  0.61666169  0.14963176  1.0
  O  O16  1  0.88333831  0.38333831  0.14963176  1.0
  O  O17  1  0.38333831  0.11666169  0.14963176  1.0
  O  O18  1  0.88333831  0.61666169  0.85036824  1.0
  O  O19  1  0.38333831  0.88333831  0.85036824  1.0
  O  O20  1  0.61666169  0.11666169  0.85036824  1.0
  O  O21  1  0.11666169  0.38333831  0.85036824  1.0
  O  O22  1  0.30233444  0.43163258  0.23443993  1.0
  O  O23  1  0.80233444  0.06836742  0.23443993  1.0
  O  O24  1  0.19766556  0.93163258  0.23443993  1.0
  O  O25  1  0.69766556  0.56836742  0.23443993  1.0
  O  O26  1  0.19766556  0.06836742  0.76556007  1.0
  O  O27  1  0.69766556  0.43163258  0.76556007  1.0
  O  O28  1  0.30233444  0.56836742  0.76556007  1.0
  O  O29  1  0.80233444  0.93163258  0.76556007  1.0
  O  O30  1  0.43163258  0.30233444  0.76556007  1.0
  O  O31  1  0.06836742  0.80233444  0.76556007  1.0
  O  O32  1  0.93163258  0.19766556  0.76556007  1.0
  O  O33  1  0.56836742  0.69766556  0.76556007  1.0
  O  O34  1  0.06836742  0.19766556  0.23443993  1.0
  O  O35  1  0.43163258  0.69766556  0.23443993  1.0
  O  O36  1  0.56836742  0.30233444  0.23443993  1.0
  O  O37  1  0.93163258  0.80233444  0.23443993  1.0
