# generated using pymatgen
data_Cs5Tl11Cd2
_symmetry_space_group_name_H-M   'P 1'
_cell_length_a   11.46723423
_cell_length_b   11.46723423
_cell_length_c   5.80911937
_cell_angle_alpha   90.00000000
_cell_angle_beta   90.00000000
_cell_angle_gamma   72.69804719
_symmetry_Int_Tables_number   1
_chemical_formula_structural   Cs5Tl11Cd2
_chemical_formula_sum   'Cs5 Tl11 Cd2'
_cell_volume   729.31918288
_cell_formula_units_Z   1
loop_
 _symmetry_equiv_pos_site_id
 _symmetry_equiv_pos_as_xyz
  1  'x, y, z'
loop_
 _atom_site_type_symbol
 _atom_site_label
 _atom_site_symmetry_multiplicity
 _atom_site_fract_x
 _atom_site_fract_y
 _atom_site_fract_z
 _atom_site_occupancy
  Cs  Cs0  1  -0.61598925  1.23431082  0.50000000  1.0
  Cs  Cs1  1  -0.23431082  1.61598925  0.50000000  1.0
  Cs  Cs2  1  0.67343192  0.94424370  0.00000000  1.0
  Cs  Cs3  1  0.05575630  0.32656808  0.00000000  1.0
  Cs  Cs4  1  -0.20953188  1.20953188  0.50000000  1.0
  Tl  Tl5  1  -0.85665224  1.04806570  0.50000000  1.0
  Tl  Tl6  1  -0.04806570  1.85665224  0.50000000  1.0
  Tl  Tl7  1  0.44663144  0.86596824  0.50000000  1.0
  Tl  Tl8  1  0.13403176  0.55336856  0.50000000  1.0
  Tl  Tl9  1  0.49595104  0.70326604  0.00000000  1.0
  Tl  Tl10  1  0.29673396  0.50404896  0.00000000  1.0
  Tl  Tl11  1  -0.69192858  0.99979678  0.00000000  1.0
  Tl  Tl12  1  0.00020322  1.69192858  0.00000000  1.0
  Tl  Tl13  1  0.44048768  0.55951232  0.50000000  1.0
  Tl  Tl14  1  -0.00316131  0.00316131  0.00000000  1.0
  Tl  Tl15  1  -0.41247537  1.41247537  0.00000000  1.0
  Cd  Cd16  1  0.22059392  0.77940608  0.75026889  1.0
  Cd  Cd17  1  0.22059392  0.77940608  0.24973111  1.0
