# generated using pymatgen
data_Ca2GaFeO5
_symmetry_space_group_name_H-M   'P 1'
_cell_length_a   5.30146170
_cell_length_b   15.26771482
_cell_length_c   5.53340343
_cell_angle_alpha   90.00000000
_cell_angle_beta   90.00000000
_cell_angle_gamma   90.00000000
_symmetry_Int_Tables_number   1
_chemical_formula_structural   Ca2GaFeO5
_chemical_formula_sum   'Ca8 Ga4 Fe4 O20'
_cell_volume   447.88034337
_cell_formula_units_Z   4
loop_
 _symmetry_equiv_pos_site_id
 _symmetry_equiv_pos_as_xyz
  1  'x, y, z'
loop_
 _atom_site_type_symbol
 _atom_site_label
 _atom_site_symmetry_multiplicity
 _atom_site_fract_x
 _atom_site_fract_y
 _atom_site_fract_z
 _atom_site_occupancy
  Fe  Fe0  1  0.00000000  0.00000000  0.00000000  1.0
  Fe  Fe1  1  0.50000000  0.50000000  0.50000000  1.0
  Fe  Fe2  1  0.00000000  0.50000000  0.00000000  1.0
  Fe  Fe3  1  0.50000000  0.00000000  0.50000000  1.0
  Ga  Ga4  1  0.04515012  0.25000000  0.06660350  1.0
  Ga  Ga5  1  0.54515012  0.25000000  0.43339650  1.0
  Ga  Ga6  1  0.95484988  0.75000000  0.93339650  1.0
  Ga  Ga7  1  0.45484988  0.75000000  0.56660350  1.0
  O  O8  1  0.96190065  0.14404002  0.92979746  1.0
  O  O9  1  0.46190065  0.35595998  0.57020254  1.0
  O  O10  1  0.03809935  0.64404002  0.07020254  1.0
  O  O11  1  0.53809935  0.85595998  0.42979746  1.0
  O  O12  1  0.03809935  0.85595998  0.07020254  1.0
  O  O13  1  0.53809935  0.64404002  0.42979746  1.0
  O  O14  1  0.96190065  0.35595998  0.92979746  1.0
  O  O15  1  0.46190065  0.14404002  0.57020254  1.0
  O  O16  1  0.40421024  0.25000000  0.11528949  1.0
  O  O17  1  0.90421024  0.25000000  0.38471051  1.0
  O  O18  1  0.59578976  0.75000000  0.88471051  1.0
  O  O19  1  0.09578976  0.75000000  0.61528949  1.0
  O  O20  1  0.74130877  0.98840484  0.75922250  1.0
  O  O21  1  0.24130877  0.51159516  0.74077750  1.0
  O  O22  1  0.25869123  0.48840484  0.24077750  1.0
  O  O23  1  0.75869123  0.01159516  0.25922250  1.0
  O  O24  1  0.25869123  0.01159516  0.24077750  1.0
  O  O25  1  0.75869123  0.48840484  0.25922250  1.0
  O  O26  1  0.74130877  0.51159516  0.75922250  1.0
  O  O27  1  0.24130877  0.98840484  0.74077750  1.0
  Ca  Ca28  1  0.51585199  0.10943117  0.97205601  1.0
  Ca  Ca29  1  0.01585199  0.39056883  0.52794399  1.0
  Ca  Ca30  1  0.48414801  0.60943117  0.02794399  1.0
  Ca  Ca31  1  0.98414801  0.89056883  0.47205601  1.0
  Ca  Ca32  1  0.48414801  0.89056883  0.02794399  1.0
  Ca  Ca33  1  0.98414801  0.60943117  0.47205601  1.0
  Ca  Ca34  1  0.51585199  0.39056883  0.97205601  1.0
  Ca  Ca35  1  0.01585199  0.10943117  0.52794399  1.0
