# generated using pymatgen
data_LiNi2P3O10
_symmetry_space_group_name_H-M   'P 1'
_cell_length_a   4.63875436
_cell_length_b   8.45520765
_cell_length_c   9.01402959
_cell_angle_alpha   90.00000000
_cell_angle_beta   98.07860546
_cell_angle_gamma   90.00000000
_symmetry_Int_Tables_number   1
_chemical_formula_structural   LiNi2P3O10
_chemical_formula_sum   'Li2 Ni4 P6 O20'
_cell_volume   350.03643732
_cell_formula_units_Z   2
loop_
 _symmetry_equiv_pos_site_id
 _symmetry_equiv_pos_as_xyz
  1  'x, y, z'
loop_
 _atom_site_type_symbol
 _atom_site_label
 _atom_site_symmetry_multiplicity
 _atom_site_fract_x
 _atom_site_fract_y
 _atom_site_fract_z
 _atom_site_occupancy
  Li  Li0  1  0.00000000  0.00000000  0.00000000  1.0
  Li  Li1  1  0.00000000  0.50000000  0.00000000  1.0
  Ni  Ni2  1  0.96528298  0.42952934  0.66323462  1.0
  Ni  Ni3  1  0.96528298  0.07047066  0.66323462  1.0
  Ni  Ni4  1  0.03471702  0.92952934  0.33676538  1.0
  Ni  Ni5  1  0.03471702  0.57047066  0.33676538  1.0
  P  P6  1  0.60235782  0.75000000  0.53523946  1.0
  P  P7  1  0.39764218  0.25000000  0.46476054  1.0
  P  P8  1  0.45950743  0.75000000  0.14660134  1.0
  P  P9  1  0.54049257  0.25000000  0.85339866  1.0
  P  P10  1  0.32866397  0.75000000  0.82121998  1.0
  P  P11  1  0.67133603  0.25000000  0.17878002  1.0
  O  O12  1  0.77246101  0.90368216  0.51447805  1.0
  O  O13  1  0.77246101  0.59631784  0.51447805  1.0
  O  O14  1  0.22753899  0.40368216  0.48552195  1.0
  O  O15  1  0.22753899  0.09631784  0.48552195  1.0
  O  O16  1  0.71483157  0.40228604  0.83985985  1.0
  O  O17  1  0.71483157  0.09771396  0.83985985  1.0
  O  O18  1  0.28516843  0.90228604  0.16014015  1.0
  O  O19  1  0.28516843  0.59771396  0.16014015  1.0
  O  O20  1  0.15708093  0.90310476  0.81265631  1.0
  O  O21  1  0.15708093  0.59689524  0.81265631  1.0
  O  O22  1  0.84291907  0.40310476  0.18734369  1.0
  O  O23  1  0.84291907  0.09689524  0.18734369  1.0
  O  O24  1  0.76529158  0.75000000  0.24100223  1.0
  O  O25  1  0.23470842  0.25000000  0.75899777  1.0
  O  O26  1  0.56646055  0.75000000  0.71086092  1.0
  O  O27  1  0.43353945  0.25000000  0.28913908  1.0
  O  O28  1  0.55119921  0.75000000  0.97630768  1.0
  O  O29  1  0.44880079  0.25000000  0.02369232  1.0
  O  O30  1  0.29375539  0.75000000  0.44471239  1.0
  O  O31  1  0.70624461  0.25000000  0.55528761  1.0
