# generated using pymatgen
data_BaH4(BrO)2
_symmetry_space_group_name_H-M   'P 1'
_cell_length_a   6.42077152
_cell_length_b   6.42077152
_cell_length_c   8.49444621
_cell_angle_alpha   70.63994558
_cell_angle_beta   109.36005442
_cell_angle_gamma   111.95642683
_symmetry_Int_Tables_number   1
_chemical_formula_structural   BaH4(BrO)2
_chemical_formula_sum   'Ba2 H8 Br4 O4'
_cell_volume   297.68360211
_cell_formula_units_Z   2
loop_
 _symmetry_equiv_pos_site_id
 _symmetry_equiv_pos_as_xyz
  1  'x, y, z'
loop_
 _atom_site_type_symbol
 _atom_site_label
 _atom_site_symmetry_multiplicity
 _atom_site_fract_x
 _atom_site_fract_y
 _atom_site_fract_z
 _atom_site_occupancy
  Ba  Ba0  1  0.60662112  0.60662112  0.75000000  1.0
  Ba  Ba1  1  0.39337888  0.39337888  0.25000000  1.0
  H  H2  1  0.27043495  0.10103434  0.94588066  1.0
  H  H3  1  0.89896566  0.72956505  0.44588066  1.0
  H  H4  1  1.10103434  -0.72956505  0.55411934  1.0
  H  H5  1  1.72956505  -0.10103434  0.05411934  1.0
  H  H6  1  0.26204041  0.11314480  0.63328849  1.0
  H  H7  1  0.88685520  0.73795959  0.13328849  1.0
  H  H8  1  1.11314480  -0.73795959  0.86671151  1.0
  H  H9  1  1.73795959  -0.11314480  0.36671151  1.0
  Br  Br10  1  0.76391108  0.19552067  0.64613844  1.0
  Br  Br11  1  0.80447933  0.23608892  0.14613844  1.0
  Br  Br12  1  1.19552067  -0.23608892  0.85386156  1.0
  Br  Br13  1  1.23608892  -0.19552067  0.35386156  1.0
  O  O14  1  0.26825958  0.25698178  0.93919777  1.0
  O  O15  1  0.74301822  0.73174042  0.43919777  1.0
  O  O16  1  1.25698178  -0.73174042  0.56080223  1.0
  O  O17  1  1.73174042  -0.25698178  0.06080223  1.0
