# generated using pymatgen
data_Gd2Ni2Sn
_symmetry_space_group_name_H-M   'P 1'
_cell_length_a   5.51382547
_cell_length_b   5.51382547
_cell_length_c   5.51382547
_cell_angle_alpha   134.09949710
_cell_angle_beta   117.74243156
_cell_angle_gamma   80.71159494
_symmetry_Int_Tables_number   1
_chemical_formula_structural   Gd2Ni2Sn
_chemical_formula_sum   'Gd2 Ni2 Sn1'
_cell_volume   103.00163514
_cell_formula_units_Z   1
loop_
 _symmetry_equiv_pos_site_id
 _symmetry_equiv_pos_as_xyz
  1  'x, y, z'
loop_
 _atom_site_type_symbol
 _atom_site_label
 _atom_site_symmetry_multiplicity
 _atom_site_fract_x
 _atom_site_fract_y
 _atom_site_fract_z
 _atom_site_occupancy
  Gd  Gd0  1  0.70295159  0.20295159  0.50000000  1.0
  Gd  Gd1  1  1.29704841  0.79704841  0.50000000  1.0
  Ni  Ni2  1  0.28882219  0.50000000  0.78882219  1.0
  Ni  Ni3  1  0.71117781  0.50000000  1.21117781  1.0
  Sn  Sn4  1  0.00000000  0.00000000  0.00000000  1.0
