# generated using pymatgen
data_Ti2P2H4O11
_symmetry_space_group_name_H-M   'P 1'
_cell_length_a   5.22435996
_cell_length_b   9.89211136
_cell_length_c   8.80419521
_cell_angle_alpha   73.75027962
_cell_angle_beta   84.99034726
_cell_angle_gamma   85.71938182
_symmetry_Int_Tables_number   1
_chemical_formula_structural   Ti2P2H4O11
_chemical_formula_sum   'Ti4 P4 H8 O22'
_cell_volume   434.55498109
_cell_formula_units_Z   2
loop_
 _symmetry_equiv_pos_site_id
 _symmetry_equiv_pos_as_xyz
  1  'x, y, z'
loop_
 _atom_site_type_symbol
 _atom_site_label
 _atom_site_symmetry_multiplicity
 _atom_site_fract_x
 _atom_site_fract_y
 _atom_site_fract_z
 _atom_site_occupancy
  Ti  Ti0  1  -0.76886303  -0.66155343  -0.26359161  1.0
  Ti  Ti1  1  -0.23113697  -0.33844657  -0.73640839  1.0
  Ti  Ti2  1  -0.55798642  -0.80467714  -0.87455255  1.0
  Ti  Ti3  1  -0.44201358  -0.19532286  -0.12544745  1.0
  P  P4  1  -0.74418639  -0.12130022  -0.81478772  1.0
  P  P5  1  -0.25581361  -0.87869978  -0.18521228  1.0
  P  P6  1  -0.71810262  -0.56706815  -0.67278823  1.0
  P  P7  1  -0.28189738  -0.43293185  -0.32721177  1.0
  H  H8  1  -0.64305788  -0.96558561  -0.34847141  1.0
  H  H9  1  -0.35694212  -0.03441439  -0.65152859  1.0
  H  H10  1  -0.27935555  -0.59634595  -0.84128808  1.0
  H  H11  1  -0.72064445  -0.40365405  -0.15871192  1.0
  H  H12  1  -0.08780900  -0.67524205  -0.95170777  1.0
  H  H13  1  -0.91219100  -0.32475795  -0.04829223  1.0
  H  H14  1  -0.12790484  -0.93787563  -0.71284775  1.0
  H  H15  1  -0.87209516  -0.06212437  -0.28715225  1.0
  O  O16  1  -0.99646699  -0.81228156  -0.24831973  1.0
  O  O17  1  -0.00353301  -0.18771844  -0.75168027  1.0
  O  O18  1  -0.94047989  -0.46875704  -0.75493049  1.0
  O  O19  1  -0.05952011  -0.53124296  -0.24506951  1.0
  O  O20  1  -0.76900688  -0.60484010  -0.49189769  1.0
  O  O21  1  -0.23099312  -0.39515990  -0.50810231  1.0
  O  O22  1  -0.76886246  -0.96850921  -0.79459488  1.0
  O  O23  1  -0.23113754  -0.03149079  -0.20540512  1.0
  O  O24  1  -0.70489704  -0.70433330  -0.72793920  1.0
  O  O25  1  -0.29510296  -0.29566670  -0.27206080  1.0
  O  O26  1  -0.68651000  -0.11316521  -0.99295524  1.0
  O  O27  1  -0.31349000  -0.88683479  -0.00704476  1.0
  O  O28  1  -0.45793308  -0.49648931  -0.72682175  1.0
  O  O29  1  -0.54206692  -0.50351069  -0.27317825  1.0
  O  O30  1  -0.47576322  -0.79400930  -0.28403320  1.0
  O  O31  1  -0.52423678  -0.20599070  -0.71596680  1.0
  O  O32  1  -0.31279900  -0.93553964  -0.68036350  1.0
  O  O33  1  -0.68720100  -0.06446036  -0.31963650  1.0
  O  O34  1  -0.26318818  -0.66702862  -0.90270039  1.0
  O  O35  1  -0.73681182  -0.33297138  -0.09729961  1.0
  O  O36  1  -0.25364709  -0.28471324  -0.96341087  1.0
  O  O37  1  -0.74635291  -0.71528676  -0.03658913  1.0
