# generated using pymatgen
data_TlCuHSO5
_symmetry_space_group_name_H-M   'P 1'
_cell_length_a   4.67586980
_cell_length_b   6.02018202
_cell_length_c   9.19630353
_cell_angle_alpha   90.00000000
_cell_angle_beta   99.36849497
_cell_angle_gamma   90.00000000
_symmetry_Int_Tables_number   1
_chemical_formula_structural   TlCuHSO5
_chemical_formula_sum   'Tl2 Cu2 H2 S2 O10'
_cell_volume   255.41926583
_cell_formula_units_Z   2
loop_
 _symmetry_equiv_pos_site_id
 _symmetry_equiv_pos_as_xyz
  1  'x, y, z'
loop_
 _atom_site_type_symbol
 _atom_site_label
 _atom_site_symmetry_multiplicity
 _atom_site_fract_x
 _atom_site_fract_y
 _atom_site_fract_z
 _atom_site_occupancy
  S  S0  1  0.49942312  0.75000000  0.76769296  1.0
  S  S1  1  0.50057688  0.25000000  0.23230704  1.0
  O  O2  1  0.33053900  0.95590270  0.77966630  1.0
  O  O3  1  0.33053900  0.54409730  0.77966630  1.0
  O  O4  1  0.66946100  0.45590270  0.22033370  1.0
  O  O5  1  0.66946100  0.04409730  0.22033370  1.0
  O  O6  1  0.64095034  0.75000000  0.63503787  1.0
  O  O7  1  0.35904966  0.25000000  0.36496213  1.0
  O  O8  1  0.17706783  0.75000000  0.10761315  1.0
  O  O9  1  0.82293217  0.25000000  0.89238685  1.0
  O  O10  1  0.74408895  0.75000000  0.90998199  1.0
  O  O11  1  0.25591105  0.25000000  0.09001801  1.0
  H  H12  1  0.38951390  0.75000000  0.12534626  1.0
  H  H13  1  0.61048610  0.25000000  0.87465374  1.0
  Cu  Cu14  1  0.00000000  0.00000000  0.00000000  1.0
  Cu  Cu15  1  0.00000000  0.50000000  0.00000000  1.0
  Tl  Tl16  1  0.08205139  0.75000000  0.38600576  1.0
  Tl  Tl17  1  0.91794861  0.25000000  0.61399424  1.0
