# generated using pymatgen
data_Bi2O3
_symmetry_space_group_name_H-M   'P 1'
_cell_length_a   8.06715686
_cell_length_b   8.06715686
_cell_length_c   5.76089091
_cell_angle_alpha   90.00000000
_cell_angle_beta   90.00000000
_cell_angle_gamma   90.00000000
_symmetry_Int_Tables_number   1
_chemical_formula_structural   Bi2O3
_chemical_formula_sum   'Bi8 O12'
_cell_volume   374.91313417
_cell_formula_units_Z   4
loop_
 _symmetry_equiv_pos_site_id
 _symmetry_equiv_pos_as_xyz
  1  'x, y, z'
loop_
 _atom_site_type_symbol
 _atom_site_label
 _atom_site_symmetry_multiplicity
 _atom_site_fract_x
 _atom_site_fract_y
 _atom_site_fract_z
 _atom_site_occupancy
  Bi  Bi0  1  0.46674483  0.23551353  0.24208249  1.0
  Bi  Bi1  1  0.03325517  0.73551353  0.25791751  1.0
  Bi  Bi2  1  0.76448647  0.46674483  0.75791751  1.0
  Bi  Bi3  1  0.73551353  0.96674483  0.74208249  1.0
  Bi  Bi4  1  0.53325517  0.76448647  0.24208249  1.0
  Bi  Bi5  1  0.96674483  0.26448647  0.25791751  1.0
  Bi  Bi6  1  0.23551353  0.53325517  0.75791751  1.0
  Bi  Bi7  1  0.26448647  0.03325517  0.74208249  1.0
  O  O8  1  0.00000000  0.50000000  0.42321657  1.0
  O  O9  1  0.50000000  0.00000000  0.07678343  1.0
  O  O10  1  0.50000000  0.00000000  0.57678343  1.0
  O  O11  1  0.00000000  0.50000000  0.92321657  1.0
  O  O12  1  0.21273783  0.17256464  0.43334779  1.0
  O  O13  1  0.28726217  0.67256464  0.06665221  1.0
  O  O14  1  0.82743536  0.21273783  0.56665221  1.0
  O  O15  1  0.67256464  0.71273783  0.93334779  1.0
  O  O16  1  0.78726217  0.82743536  0.43334779  1.0
  O  O17  1  0.71273783  0.32743536  0.06665221  1.0
  O  O18  1  0.17256464  0.78726217  0.56665221  1.0
  O  O19  1  0.32743536  0.28726217  0.93334779  1.0
