# generated using pymatgen
data_Lu2CCl2
_symmetry_space_group_name_H-M   'P 1'
_cell_length_a   10.04542738
_cell_length_b   10.04542738
_cell_length_c   10.04542738
_cell_angle_alpha   20.70769680
_cell_angle_beta   20.70769680
_cell_angle_gamma   20.70769680
_symmetry_Int_Tables_number   1
_chemical_formula_structural   Lu2CCl2
_chemical_formula_sum   'Lu2 C1 Cl2'
_cell_volume   110.95886080
_cell_formula_units_Z   1
loop_
 _symmetry_equiv_pos_site_id
 _symmetry_equiv_pos_as_xyz
  1  'x, y, z'
loop_
 _atom_site_type_symbol
 _atom_site_label
 _atom_site_symmetry_multiplicity
 _atom_site_fract_x
 _atom_site_fract_y
 _atom_site_fract_z
 _atom_site_occupancy
  Lu  Lu0  1  1.62270380  0.62270380  0.62270380  1.0
  Lu  Lu1  1  1.37729620  0.37729620  0.37729620  1.0
  C  C2  1  -0.00000000  0.00000000  -0.00000000  1.0
  Cl  Cl3  1  0.76956715  0.76956715  0.76956715  1.0
  Cl  Cl4  1  1.23043285  1.23043285  0.23043285  1.0
