# generated using pymatgen
data_Ge19(SbI)4
_symmetry_space_group_name_H-M   'P 1'
_cell_length_a   11.07449780
_cell_length_b   11.07449780
_cell_length_c   11.07449780
_cell_angle_alpha   90.00000000
_cell_angle_beta   90.00000000
_cell_angle_gamma   90.00000000
_symmetry_Int_Tables_number   1
_chemical_formula_structural   Ge19(SbI)4
_chemical_formula_sum   'Ge38 Sb8 I8'
_cell_volume   1358.22626170
_cell_formula_units_Z   2
loop_
 _symmetry_equiv_pos_site_id
 _symmetry_equiv_pos_as_xyz
  1  'x, y, z'
loop_
 _atom_site_type_symbol
 _atom_site_label
 _atom_site_symmetry_multiplicity
 _atom_site_fract_x
 _atom_site_fract_y
 _atom_site_fract_z
 _atom_site_occupancy
  Ge  Ge0  1  0.50945088  0.18484563  0.61495557  1.0
  Ge  Ge1  1  0.50945088  0.81515437  0.38504443  1.0
  Ge  Ge2  1  1.00945088  0.88504443  0.31515437  1.0
  Ge  Ge3  1  1.00945088  0.11495557  0.68484563  1.0
  Ge  Ge4  1  0.38504443  0.50945088  0.81515437  1.0
  Ge  Ge5  1  0.38504443  0.49054912  0.18484563  1.0
  Ge  Ge6  1  0.88504443  0.68484563  -0.00945088  1.0
  Ge  Ge7  1  0.88504443  0.31515437  1.00945088  1.0
  Ge  Ge8  1  0.18484563  0.38504443  0.49054912  1.0
  Ge  Ge9  1  0.18484563  0.61495557  0.50945088  1.0
  Ge  Ge10  1  0.68484563  1.00945088  0.11495557  1.0
  Ge  Ge11  1  0.68484563  -0.00945088  0.88504443  1.0
  Ge  Ge12  1  0.49054912  0.18484563  0.38504443  1.0
  Ge  Ge13  1  0.49054912  0.81515437  0.61495557  1.0
  Ge  Ge14  1  -0.00945088  0.88504443  0.68484563  1.0
  Ge  Ge15  1  -0.00945088  0.11495557  0.31515437  1.0
  Ge  Ge16  1  0.61495557  0.50945088  0.18484563  1.0
  Ge  Ge17  1  0.61495557  0.49054912  0.81515437  1.0
  Ge  Ge18  1  0.11495557  0.68484563  1.00945088  1.0
  Ge  Ge19  1  0.11495557  0.31515437  -0.00945088  1.0
  Ge  Ge20  1  0.81515437  0.38504443  0.50945088  1.0
  Ge  Ge21  1  0.81515437  0.61495557  0.49054912  1.0
  Ge  Ge22  1  0.31515437  1.00945088  0.88504443  1.0
  Ge  Ge23  1  0.31515437  -0.00945088  0.11495557  1.0
  Ge  Ge24  1  0.17755480  0.17755480  0.82244520  1.0
  Ge  Ge25  1  0.17755480  0.82244520  0.17755480  1.0
  Ge  Ge26  1  0.67755480  0.67755480  0.32244520  1.0
  Ge  Ge27  1  0.67755480  0.32244520  0.67755480  1.0
  Ge  Ge28  1  0.82244520  0.17755480  0.17755480  1.0
  Ge  Ge29  1  0.82244520  0.82244520  0.82244520  1.0
  Ge  Ge30  1  0.32244520  0.67755480  0.67755480  1.0
  Ge  Ge31  1  0.32244520  0.32244520  0.32244520  1.0
  Ge  Ge32  1  0.25000000  0.50000000  0.00000000  1.0
  Ge  Ge33  1  0.75000000  0.50000000  0.00000000  1.0
  Ge  Ge34  1  0.00000000  0.25000000  0.50000000  1.0
  Ge  Ge35  1  0.00000000  0.75000000  0.50000000  1.0
  Ge  Ge36  1  0.50000000  0.00000000  0.25000000  1.0
  Ge  Ge37  1  0.50000000  0.00000000  0.75000000  1.0
  Sb  Sb38  1  0.31597223  0.31597223  0.68402777  1.0
  Sb  Sb39  1  0.31597223  0.68402777  0.31597223  1.0
  Sb  Sb40  1  0.81597223  0.81597223  0.18402777  1.0
  Sb  Sb41  1  0.81597223  0.18402777  0.81597223  1.0
  Sb  Sb42  1  0.68402777  0.31597223  0.31597223  1.0
  Sb  Sb43  1  0.68402777  0.68402777  0.68402777  1.0
  Sb  Sb44  1  0.18402777  0.81597223  0.81597223  1.0
  Sb  Sb45  1  0.18402777  0.18402777  0.18402777  1.0
  I  I46  1  0.25000000  0.00000000  0.50000000  1.0
  I  I47  1  0.75000000  0.00000000  0.50000000  1.0
  I  I48  1  0.50000000  0.25000000  0.00000000  1.0
  I  I49  1  0.50000000  0.75000000  0.00000000  1.0
  I  I50  1  0.00000000  0.50000000  0.25000000  1.0
  I  I51  1  0.00000000  0.50000000  0.75000000  1.0
  I  I52  1  0.50000000  0.50000000  0.50000000  1.0
  I  I53  1  0.00000000  0.00000000  0.00000000  1.0
