# generated using pymatgen
data_Ba2LaSbO6
_symmetry_space_group_name_H-M   'P 1'
_cell_length_a   6.14379658
_cell_length_b   6.14379658
_cell_length_c   6.14379658
_cell_angle_alpha   60.58198182
_cell_angle_beta   60.58198182
_cell_angle_gamma   60.58198183
_symmetry_Int_Tables_number   1
_chemical_formula_structural   Ba2LaSbO6
_chemical_formula_sum   'Ba2 La1 Sb1 O6'
_cell_volume   166.13738744
_cell_formula_units_Z   1
loop_
 _symmetry_equiv_pos_site_id
 _symmetry_equiv_pos_as_xyz
  1  'x, y, z'
loop_
 _atom_site_type_symbol
 _atom_site_label
 _atom_site_symmetry_multiplicity
 _atom_site_fract_x
 _atom_site_fract_y
 _atom_site_fract_z
 _atom_site_occupancy
  Ba  Ba0  1  0.75223657  0.75223657  -0.24776343  1.0
  Ba  Ba1  1  1.24776343  1.24776343  0.24776343  1.0
  La  La2  1  0.50000000  0.50000000  -0.50000000  1.0
  Sb  Sb3  1  0.00000000  0.00000000  0.00000000  1.0
  O  O4  1  0.82191204  -0.28195773  0.22587987  1.0
  O  O5  1  0.28195773  0.77412013  -0.82191204  1.0
  O  O6  1  0.77412013  0.17808796  -0.71804227  1.0
  O  O7  1  0.17808796  0.28195773  -0.22587987  1.0
  O  O8  1  0.71804227  0.22587987  -0.17808796  1.0
  O  O9  1  1.22587987  -0.17808796  -0.28195773  1.0
