# generated using pymatgen
data_Ba4NdMn3O12
_symmetry_space_group_name_H-M   'P 1'
_cell_length_a   10.22368254
_cell_length_b   10.22368254
_cell_length_c   10.22368254
_cell_angle_alpha   33.23270589
_cell_angle_beta   33.23270589
_cell_angle_gamma   33.23270589
_symmetry_Int_Tables_number   1
_chemical_formula_structural   Ba4NdMn3O12
_chemical_formula_sum   'Ba4 Nd1 Mn3 O12'
_cell_volume   285.73270124
_cell_formula_units_Z   1
loop_
 _symmetry_equiv_pos_site_id
 _symmetry_equiv_pos_as_xyz
  1  'x, y, z'
loop_
 _atom_site_type_symbol
 _atom_site_label
 _atom_site_symmetry_multiplicity
 _atom_site_fract_x
 _atom_site_fract_y
 _atom_site_fract_z
 _atom_site_occupancy
  Ba  Ba0  1  0.77995677  0.77995677  0.77995677  1.0
  Ba  Ba1  1  1.22004323  1.22004323  0.22004323  1.0
  Ba  Ba2  1  1.63140264  0.63140264  0.63140264  1.0
  Ba  Ba3  1  1.36859736  0.36859736  0.36859736  1.0
  Nd  Nd4  1  1.50000000  0.50000000  0.50000000  1.0
  Mn  Mn5  1  0.91193245  0.91193245  0.91193245  1.0
  Mn  Mn6  1  1.08806755  1.08806755  0.08806755  1.0
  Mn  Mn7  1  0.00000000  0.00000000  0.00000000  1.0
  O  O8  1  1.27734380  1.27734380  -0.19078369  1.0
  O  O9  1  1.27734380  0.80921631  0.27734380  1.0
  O  O10  1  1.19078369  0.72265620  0.72265620  1.0
  O  O11  1  1.72265620  0.19078369  0.72265620  1.0
  O  O12  1  1.72265620  0.72265620  0.19078369  1.0
  O  O13  1  0.80921631  1.27734380  0.27734380  1.0
  O  O14  1  1.10431217  1.10431217  0.66569161  1.0
  O  O15  1  1.10431217  1.66569161  0.10431217  1.0
  O  O16  1  1.33430839  0.89568783  -0.10431217  1.0
  O  O17  1  0.89568783  1.33430839  -0.10431217  1.0
  O  O18  1  0.89568783  0.89568783  0.33430839  1.0
  O  O19  1  1.66569161  1.10431217  0.10431217  1.0
