# generated using pymatgen
data_Lu2Co17
_symmetry_space_group_name_H-M   'P 1'
_cell_length_a   8.23626805
_cell_length_b   8.23626805
_cell_length_c   8.05182338
_cell_angle_alpha   90.00000000
_cell_angle_beta   90.00000000
_cell_angle_gamma   120.00000000
_symmetry_Int_Tables_number   1
_chemical_formula_structural   Lu2Co17
_chemical_formula_sum   'Lu4 Co34'
_cell_volume   473.02687556
_cell_formula_units_Z   2
loop_
 _symmetry_equiv_pos_site_id
 _symmetry_equiv_pos_as_xyz
  1  'x, y, z'
loop_
 _atom_site_type_symbol
 _atom_site_label
 _atom_site_symmetry_multiplicity
 _atom_site_fract_x
 _atom_site_fract_y
 _atom_site_fract_z
 _atom_site_occupancy
  Lu  Lu0  1  0.33333333  0.66666667  0.25000000  1.0
  Lu  Lu1  1  0.66666667  0.33333333  0.75000000  1.0
  Lu  Lu2  1  -0.00000000  -0.00000000  0.25000000  1.0
  Lu  Lu3  1  0.00000000  -0.00000000  0.75000000  1.0
  Co  Co4  1  0.16605230  0.83394770  0.47739813  1.0
  Co  Co5  1  0.16605230  0.83394770  0.02260187  1.0
  Co  Co6  1  0.16605230  0.33210460  0.47739813  1.0
  Co  Co7  1  0.16605230  0.33210460  0.02260187  1.0
  Co  Co8  1  0.83394770  0.16605230  -0.02260187  1.0
  Co  Co9  1  0.83394770  0.16605230  0.52260187  1.0
  Co  Co10  1  0.83394770  0.66789540  -0.02260187  1.0
  Co  Co11  1  0.83394770  0.66789540  0.52260187  1.0
  Co  Co12  1  0.66789540  0.83394770  0.47739813  1.0
  Co  Co13  1  0.66789540  0.83394770  0.02260187  1.0
  Co  Co14  1  0.33210460  0.16605230  -0.02260187  1.0
  Co  Co15  1  0.33210460  0.16605230  0.52260187  1.0
  Co  Co16  1  0.37270613  0.04472655  0.25000000  1.0
  Co  Co17  1  0.37270613  0.32797958  0.25000000  1.0
  Co  Co18  1  0.04472655  0.37270613  0.75000000  1.0
  Co  Co19  1  0.04472655  0.67202042  0.75000000  1.0
  Co  Co20  1  0.67202042  0.04472655  0.25000000  1.0
  Co  Co21  1  0.67202042  0.62729387  0.25000000  1.0
  Co  Co22  1  -0.04472655  0.62729387  0.25000000  1.0
  Co  Co23  1  -0.04472655  0.32797958  0.25000000  1.0
  Co  Co24  1  0.62729387  0.67202042  0.75000000  1.0
  Co  Co25  1  0.62729387  -0.04472655  0.75000000  1.0
  Co  Co26  1  0.32797958  0.37270613  0.75000000  1.0
  Co  Co27  1  0.32797958  -0.04472655  0.75000000  1.0
  Co  Co28  1  0.50000000  0.50000000  0.50000000  1.0
  Co  Co29  1  0.50000000  0.50000000  0.00000000  1.0
  Co  Co30  1  0.50000000  0.00000000  0.50000000  1.0
  Co  Co31  1  0.50000000  0.00000000  0.00000000  1.0
  Co  Co32  1  -0.00000000  0.50000000  0.50000000  1.0
  Co  Co33  1  -0.00000000  0.50000000  -0.00000000  1.0
  Co  Co34  1  0.33333333  0.66666667  0.89361507  1.0
  Co  Co35  1  0.33333333  0.66666667  0.60638493  1.0
  Co  Co36  1  0.66666667  0.33333333  0.39361507  1.0
  Co  Co37  1  0.66666667  0.33333333  0.10638493  1.0
