# generated using pymatgen
data_Ti2Pd3
_symmetry_space_group_name_H-M   'P 1'
_cell_length_a   7.55284467
_cell_length_b   7.55284467
_cell_length_c   4.62758892
_cell_angle_alpha   90.00000000
_cell_angle_beta   90.00000000
_cell_angle_gamma   36.45913636
_symmetry_Int_Tables_number   1
_chemical_formula_structural   Ti2Pd3
_chemical_formula_sum   'Ti4 Pd6'
_cell_volume   156.87168908
_cell_formula_units_Z   2
loop_
 _symmetry_equiv_pos_site_id
 _symmetry_equiv_pos_as_xyz
  1  'x, y, z'
loop_
 _atom_site_type_symbol
 _atom_site_label
 _atom_site_symmetry_multiplicity
 _atom_site_fract_x
 _atom_site_fract_y
 _atom_site_fract_z
 _atom_site_occupancy
  Ti  Ti0  1  -0.16354504  0.37936618  0.75000000  1.0
  Ti  Ti1  1  -0.62063382  0.83645496  0.25000000  1.0
  Ti  Ti2  1  -0.37936618  1.16354504  0.75000000  1.0
  Ti  Ti3  1  0.16354504  0.62063382  0.25000000  1.0
  Pd  Pd4  1  0.02158476  0.58892303  0.75000000  1.0
  Pd  Pd5  1  -0.41107697  1.02158476  0.25000000  1.0
  Pd  Pd6  1  -0.58892303  0.97841524  0.75000000  1.0
  Pd  Pd7  1  -0.02158476  0.41107697  0.25000000  1.0
  Pd  Pd8  1  -0.79474094  0.79474094  0.75000000  1.0
  Pd  Pd9  1  -0.20525906  0.20525906  0.25000000  1.0
