# generated using pymatgen
data_RuF6
_symmetry_space_group_name_H-M   'P 1'
_cell_length_a   9.95497232
_cell_length_b   9.18728552
_cell_length_c   5.30252426
_cell_angle_alpha   90.00000000
_cell_angle_beta   90.00000000
_cell_angle_gamma   90.00000000
_symmetry_Int_Tables_number   1
_chemical_formula_structural   RuF6
_chemical_formula_sum   'Ru4 F24'
_cell_volume   484.96448377
_cell_formula_units_Z   4
loop_
 _symmetry_equiv_pos_site_id
 _symmetry_equiv_pos_as_xyz
  1  'x, y, z'
loop_
 _atom_site_type_symbol
 _atom_site_label
 _atom_site_symmetry_multiplicity
 _atom_site_fract_x
 _atom_site_fract_y
 _atom_site_fract_z
 _atom_site_occupancy
  Ru  Ru0  1  0.87230872  0.25000000  0.41620803  1.0
  Ru  Ru1  1  0.37230872  0.25000000  0.08379197  1.0
  Ru  Ru2  1  0.12769128  0.75000000  0.58379197  1.0
  Ru  Ru3  1  0.62769128  0.75000000  0.91620803  1.0
  F  F4  1  0.97994379  0.39218375  0.27437445  1.0
  F  F5  1  0.97994379  0.10781625  0.27437445  1.0
  F  F6  1  0.47994379  0.39218375  0.22562555  1.0
  F  F7  1  0.47994379  0.10781625  0.22562555  1.0
  F  F8  1  0.02005621  0.89218375  0.72562555  1.0
  F  F9  1  0.02005621  0.60781625  0.72562555  1.0
  F  F10  1  0.52005621  0.89218375  0.77437445  1.0
  F  F11  1  0.52005621  0.60781625  0.77437445  1.0
  F  F12  1  0.76465910  0.39217163  0.55745022  1.0
  F  F13  1  0.76465910  0.10782837  0.55745022  1.0
  F  F14  1  0.26465910  0.39217163  0.94254978  1.0
  F  F15  1  0.26465910  0.10782837  0.94254978  1.0
  F  F16  1  0.23534090  0.89217163  0.44254978  1.0
  F  F17  1  0.23534090  0.60782837  0.44254978  1.0
  F  F18  1  0.73534090  0.89217163  0.05745022  1.0
  F  F19  1  0.73534090  0.60782837  0.05745022  1.0
  F  F20  1  0.97901763  0.25000000  0.70161870  1.0
  F  F21  1  0.47901763  0.25000000  0.79838130  1.0
  F  F22  1  0.02098237  0.75000000  0.29838130  1.0
  F  F23  1  0.52098237  0.75000000  0.20161870  1.0
  F  F24  1  0.76568105  0.25000000  0.13029568  1.0
  F  F25  1  0.26568105  0.25000000  0.36970432  1.0
  F  F26  1  0.23431895  0.75000000  0.86970432  1.0
  F  F27  1  0.73431895  0.75000000  0.63029568  1.0
