# generated using pymatgen
data_KAg2SbS4
_symmetry_space_group_name_H-M   'P 1'
_cell_length_a   6.64743121
_cell_length_b   6.64743121
_cell_length_c   6.64743121
_cell_angle_alpha   118.38764285
_cell_angle_beta   118.38764285
_cell_angle_gamma   92.81613479
_symmetry_Int_Tables_number   1
_chemical_formula_structural   KAg2SbS4
_chemical_formula_sum   'K1 Ag2 Sb1 S4'
_cell_volume   212.48908569
_cell_formula_units_Z   1
loop_
 _symmetry_equiv_pos_site_id
 _symmetry_equiv_pos_as_xyz
  1  'x, y, z'
loop_
 _atom_site_type_symbol
 _atom_site_label
 _atom_site_symmetry_multiplicity
 _atom_site_fract_x
 _atom_site_fract_y
 _atom_site_fract_z
 _atom_site_occupancy
  K  K0  1  0.50000000  0.50000000  -0.00000000  1.0
  Ag  Ag1  1  0.75000000  1.25000000  0.50000000  1.0
  Ag  Ag2  1  1.25000000  0.75000000  0.50000000  1.0
  Sb  Sb3  1  0.00000000  0.00000000  0.00000000  1.0
  S  S4  1  0.95111696  0.95111696  0.59812676  1.0
  S  S5  1  1.04888304  0.64700980  1.00000000  1.0
  S  S6  1  0.64700980  1.04888304  1.00000000  1.0
  S  S7  1  0.35299020  0.35299020  0.40187324  1.0
