# generated using pymatgen
data_Cs2P4Pd3O14
_symmetry_space_group_name_H-M   'P 1'
_cell_length_a   8.21498437
_cell_length_b   8.21498437
_cell_length_c   14.91076809
_cell_angle_alpha   90.00000000
_cell_angle_beta   90.00000000
_cell_angle_gamma   123.92113291
_symmetry_Int_Tables_number   1
_chemical_formula_structural   Cs2P4Pd3O14
_chemical_formula_sum   'Cs4 P8 Pd6 O28'
_cell_volume   835.00742426
_cell_formula_units_Z   2
loop_
 _symmetry_equiv_pos_site_id
 _symmetry_equiv_pos_as_xyz
  1  'x, y, z'
loop_
 _atom_site_type_symbol
 _atom_site_label
 _atom_site_symmetry_multiplicity
 _atom_site_fract_x
 _atom_site_fract_y
 _atom_site_fract_z
 _atom_site_occupancy
  Cs  Cs0  1  0.27671804  0.72328196  0.50319673  1.0
  Cs  Cs1  1  -0.27671804  0.27671804  0.00319673  1.0
  Cs  Cs2  1  -0.42217087  0.42217087  0.72805200  1.0
  Cs  Cs3  1  0.42217087  0.57782913  0.22805200  1.0
  P  P4  1  0.10684751  0.52245214  0.77668735  1.0
  P  P5  1  0.52245214  1.10684751  0.27668735  1.0
  P  P6  1  0.47754786  0.89315249  0.77668735  1.0
  P  P7  1  -0.10684751  0.47754786  0.27668735  1.0
  P  P8  1  -0.17916360  0.80738600  0.53005865  1.0
  P  P9  1  0.80738600  0.82083640  0.03005865  1.0
  P  P10  1  0.19261400  1.17916360  0.53005865  1.0
  P  P11  1  0.17916360  0.19261400  0.03005865  1.0
  Pd  Pd12  1  0.11736722  0.88263278  0.16550614  1.0
  Pd  Pd13  1  -0.11736722  0.11736722  0.66550614  1.0
  Pd  Pd14  1  0.13929830  0.86070170  0.89954947  1.0
  Pd  Pd15  1  -0.13929830  0.13929830  0.39954947  1.0
  Pd  Pd16  1  0.39936280  0.60063720  0.92386570  1.0
  Pd  Pd17  1  -0.39936280  0.39936280  0.42386570  1.0
  O  O18  1  0.19617466  0.42781974  0.82919156  1.0
  O  O19  1  0.42781974  1.19617466  0.32919156  1.0
  O  O20  1  0.57218026  0.80382534  0.82919156  1.0
  O  O21  1  -0.19617466  0.57218026  0.32919156  1.0
  O  O22  1  0.00520610  0.59629136  0.83531857  1.0
  O  O23  1  0.59629136  1.00520610  0.33531857  1.0
  O  O24  1  0.40370864  0.99479390  0.83531857  1.0
  O  O25  1  -0.00520610  0.40370864  0.33531857  1.0
  O  O26  1  -0.13219357  0.72849970  0.95874866  1.0
  O  O27  1  0.72849970  0.86780643  0.45874866  1.0
  O  O28  1  0.27150030  1.13219357  0.95874866  1.0
  O  O29  1  0.13219357  0.27150030  0.45874866  1.0
  O  O30  1  0.16158679  0.21815745  0.62830724  1.0
  O  O31  1  0.21815745  1.16158679  0.12830724  1.0
  O  O32  1  0.78184255  0.83841321  0.62830724  1.0
  O  O33  1  -0.16158679  0.78184255  0.12830724  1.0
  O  O34  1  -0.23649371  0.59505472  0.52215413  1.0
  O  O35  1  0.59505472  0.76350629  0.02215413  1.0
  O  O36  1  0.40494528  1.23649371  0.52215413  1.0
  O  O37  1  0.23649371  0.40494528  0.02215413  1.0
  O  O38  1  -0.03422753  0.39145204  0.70205248  1.0
  O  O39  1  0.39145204  0.96577247  0.20205248  1.0
  O  O40  1  0.60854796  1.03422753  0.70205248  1.0
  O  O41  1  0.03422753  0.60854796  0.20205248  1.0
  O  O42  1  0.05888084  0.94111916  0.51479131  1.0
  O  O43  1  -0.05888084  0.05888084  0.01479131  1.0
  O  O44  1  0.28644041  0.71355959  0.72300139  1.0
  O  O45  1  -0.28644041  0.28644041  0.22300139  1.0
