# generated using pymatgen
data_LiFePO4
_symmetry_space_group_name_H-M   'P 1'
_cell_length_a   10.43324784
_cell_length_b   6.04641229
_cell_length_c   4.74111738
_cell_angle_alpha   90.00000000
_cell_angle_beta   90.00000000
_cell_angle_gamma   90.00000000
_symmetry_Int_Tables_number   1
_chemical_formula_structural   LiFePO4
_chemical_formula_sum   'Li4 Fe4 P4 O16'
_cell_volume   299.08731173
_cell_formula_units_Z   4
loop_
 _symmetry_equiv_pos_site_id
 _symmetry_equiv_pos_as_xyz
  1  'x, y, z'
loop_
 _atom_site_type_symbol
 _atom_site_label
 _atom_site_symmetry_multiplicity
 _atom_site_fract_x
 _atom_site_fract_y
 _atom_site_fract_z
 _atom_site_occupancy
  Li  Li0  1  0.00000000  0.50000000  0.00000000  1.0
  Li  Li1  1  0.00000000  0.00000000  0.00000000  1.0
  Li  Li2  1  0.50000000  0.50000000  0.50000000  1.0
  Li  Li3  1  0.50000000  0.00000000  0.50000000  1.0
  Fe  Fe4  1  0.78244521  0.25000000  0.52315349  1.0
  Fe  Fe5  1  0.28244521  0.25000000  0.97684651  1.0
  Fe  Fe6  1  0.21755479  0.75000000  0.47684651  1.0
  Fe  Fe7  1  0.71755479  0.75000000  0.02315349  1.0
  P  P8  1  0.59541665  0.25000000  0.07785608  1.0
  P  P9  1  0.09541665  0.25000000  0.42214392  1.0
  P  P10  1  0.40458335  0.75000000  0.92214392  1.0
  P  P11  1  0.90458335  0.75000000  0.57785608  1.0
  O  O12  1  0.66710184  0.45507859  0.21078225  1.0
  O  O13  1  0.66710184  0.04492141  0.21078225  1.0
  O  O14  1  0.16710184  0.45507859  0.28921775  1.0
  O  O15  1  0.16710184  0.04492141  0.28921775  1.0
  O  O16  1  0.33289816  0.95507859  0.78921775  1.0
  O  O17  1  0.33289816  0.54492141  0.78921775  1.0
  O  O18  1  0.83289816  0.95507859  0.71078225  1.0
  O  O19  1  0.83289816  0.54492141  0.71078225  1.0
  O  O20  1  0.95778398  0.25000000  0.29273903  1.0
  O  O21  1  0.45778398  0.25000000  0.20726097  1.0
  O  O22  1  0.04221602  0.75000000  0.70726097  1.0
  O  O23  1  0.54221602  0.75000000  0.79273903  1.0
  O  O24  1  0.59574373  0.25000000  0.75267843  1.0
  O  O25  1  0.09574373  0.25000000  0.74732157  1.0
  O  O26  1  0.40425627  0.75000000  0.24732157  1.0
  O  O27  1  0.90425627  0.75000000  0.25267843  1.0
