# generated using pymatgen
data_Sc13Ru4
_symmetry_space_group_name_H-M   'P 1'
_cell_length_a   11.58008849
_cell_length_b   11.58008849
_cell_length_c   11.58008849
_cell_angle_alpha   60.00000000
_cell_angle_beta   60.00000000
_cell_angle_gamma   60.00000000
_symmetry_Int_Tables_number   1
_chemical_formula_structural   Sc13Ru4
_chemical_formula_sum   'Sc26 Ru8'
_cell_volume   1098.04625980
_cell_formula_units_Z   2
loop_
 _symmetry_equiv_pos_site_id
 _symmetry_equiv_pos_as_xyz
  1  'x, y, z'
loop_
 _atom_site_type_symbol
 _atom_site_label
 _atom_site_symmetry_multiplicity
 _atom_site_fract_x
 _atom_site_fract_y
 _atom_site_fract_z
 _atom_site_occupancy
  Sc  Sc0  1  0.93554373  -0.55352367  0.68243620  1.0
  Sc  Sc1  1  -0.06445627  0.68243620  0.44647633  1.0
  Sc  Sc2  1  -0.19647633  0.31445627  0.31445627  1.0
  Sc  Sc3  1  0.56756380  0.31445627  0.31445627  1.0
  Sc  Sc4  1  -0.55352367  0.93554373  0.68243620  1.0
  Sc  Sc5  1  0.93554373  -0.06445627  0.68243620  1.0
  Sc  Sc6  1  0.93554373  -0.31756380  0.93554373  1.0
  Sc  Sc7  1  -0.55352367  0.68243620  0.93554373  1.0
  Sc  Sc8  1  0.31445627  -0.19647633  0.31445627  1.0
  Sc  Sc9  1  0.31445627  0.31445627  -0.19647633  1.0
  Sc  Sc10  1  0.56756380  0.31445627  -0.19647633  1.0
  Sc  Sc11  1  0.56756380  -0.19647633  0.31445627  1.0
  Sc  Sc12  1  0.68243620  -0.06445627  0.93554373  1.0
  Sc  Sc13  1  -0.55352367  0.93554373  0.93554373  1.0
  Sc  Sc14  1  0.31445627  0.56756380  -0.19647633  1.0
  Sc  Sc15  1  0.31445627  -0.19647633  0.56756380  1.0
  Sc  Sc16  1  -0.31756380  0.93554373  0.44647633  1.0
  Sc  Sc17  1  0.68243620  -0.55352367  0.93554373  1.0
  Sc  Sc18  1  0.93554373  -0.55352367  0.93554373  1.0
  Sc  Sc19  1  -0.06445627  0.93554373  0.44647633  1.0
  Sc  Sc20  1  0.31445627  0.56756380  0.31445627  1.0
  Sc  Sc21  1  -0.19647633  0.56756380  0.31445627  1.0
  Sc  Sc22  1  -0.19647633  0.31445627  0.56756380  1.0
  Sc  Sc23  1  0.31445627  0.31445627  0.56756380  1.0
  Sc  Sc24  1  0.50000000  0.50000000  -0.50000000  1.0
  Sc  Sc25  1  0.75000000  -0.25000000  0.75000000  1.0
  Ru  Ru26  1  0.66525126  -0.33474874  1.00424621  1.0
  Ru  Ru27  1  0.66525126  0.00424621  0.66525126  1.0
  Ru  Ru28  1  0.58474874  -0.41525126  0.58474874  1.0
  Ru  Ru29  1  1.24575379  -0.41525126  0.58474874  1.0
  Ru  Ru30  1  1.00424621  -0.33474874  0.66525126  1.0
  Ru  Ru31  1  0.66525126  -0.33474874  0.66525126  1.0
  Ru  Ru32  1  0.58474874  0.24575379  0.58474874  1.0
  Ru  Ru33  1  0.58474874  -0.41525126  1.24575379  1.0
