# generated using pymatgen
data_K2AlH2OF5
_symmetry_space_group_name_H-M   'P 1'
_cell_length_a   6.36696206
_cell_length_b   7.58704458
_cell_length_c   6.37022232
_cell_angle_alpha   90.00000000
_cell_angle_beta   100.90767699
_cell_angle_gamma   90.00000000
_symmetry_Int_Tables_number   1
_chemical_formula_structural   K2AlH2OF5
_chemical_formula_sum   'K4 Al2 H4 O2 F10'
_cell_volume   302.16315417
_cell_formula_units_Z   2
loop_
 _symmetry_equiv_pos_site_id
 _symmetry_equiv_pos_as_xyz
  1  'x, y, z'
loop_
 _atom_site_type_symbol
 _atom_site_label
 _atom_site_symmetry_multiplicity
 _atom_site_fract_x
 _atom_site_fract_y
 _atom_site_fract_z
 _atom_site_occupancy
  K  K0  1  0.51186702  0.25000000  0.11289966  1.0
  K  K1  1  0.48813298  0.75000000  0.88710034  1.0
  K  K2  1  0.11308616  0.25000000  0.51135213  1.0
  K  K3  1  0.88691384  0.75000000  0.48864787  1.0
  Al  Al4  1  0.00000000  0.50000000  0.00000000  1.0
  Al  Al5  1  0.00000000  0.00000000  0.00000000  1.0
  H  H6  1  0.63895120  0.35281091  0.63901733  1.0
  H  H7  1  0.63895120  0.14718909  0.63901733  1.0
  H  H8  1  0.36104880  0.85281091  0.36098267  1.0
  H  H9  1  0.36104880  0.64718909  0.36098267  1.0
  O  O10  1  0.56466600  0.25000000  0.56410546  1.0
  O  O11  1  0.43533400  0.75000000  0.43589454  1.0
  F  F12  1  0.77677996  -0.02295395  0.77705599  1.0
  F  F13  1  0.77677996  0.52295395  0.77705599  1.0
  F  F14  1  0.22322004  0.47704605  0.22294401  1.0
  F  F15  1  0.22322004  1.02295395  0.22294401  1.0
  F  F16  1  0.18428036  0.49958678  0.81571129  1.0
  F  F17  1  0.18428036  0.00041322  0.81571129  1.0
  F  F18  1  0.81571964  0.99958678  0.18428871  1.0
  F  F19  1  0.81571964  0.50041322  0.18428871  1.0
  F  F20  1  -0.02293721  0.25000000  -0.02204085  1.0
  F  F21  1  1.02293721  0.75000000  1.02204085  1.0
