# generated using pymatgen
data_LiEu(WO4)2
_symmetry_space_group_name_H-M   'P 1'
_cell_length_a   5.01725730
_cell_length_b   6.14924480
_cell_length_c   11.10892006
_cell_angle_alpha   90.00000000
_cell_angle_beta   113.53729795
_cell_angle_gamma   90.00000000
_symmetry_Int_Tables_number   1
_chemical_formula_structural   LiEu(WO4)2
_chemical_formula_sum   'Li2 Eu2 W4 O16'
_cell_volume   314.22066765
_cell_formula_units_Z   2
loop_
 _symmetry_equiv_pos_site_id
 _symmetry_equiv_pos_as_xyz
  1  'x, y, z'
loop_
 _atom_site_type_symbol
 _atom_site_label
 _atom_site_symmetry_multiplicity
 _atom_site_fract_x
 _atom_site_fract_y
 _atom_site_fract_z
 _atom_site_occupancy
  Li  Li0  1  0.00000000  0.77527228  0.25000000  1.0
  Li  Li1  1  -0.00000000  0.22472772  0.75000000  1.0
  Eu  Eu2  1  0.50000000  0.32247160  0.25000000  1.0
  Eu  Eu3  1  0.50000000  0.67752840  0.75000000  1.0
  W  W4  1  0.73339260  0.82860450  0.47963510  1.0
  W  W5  1  0.73339260  0.17139550  0.97963510  1.0
  W  W6  1  0.26660740  0.82860450  0.02036490  1.0
  W  W7  1  0.26660740  0.17139550  0.52036490  1.0
  O  O8  1  0.64960858  0.91510375  0.11159082  1.0
  O  O9  1  0.64960858  0.08489625  0.61159082  1.0
  O  O10  1  0.35039142  0.91510375  0.38840918  1.0
  O  O11  1  0.35039142  0.08489625  0.88840918  1.0
  O  O12  1  0.71302038  0.35623432  0.10260130  1.0
  O  O13  1  0.71302038  0.64376568  0.60260130  1.0
  O  O14  1  0.28697962  0.35623432  0.39739870  1.0
  O  O15  1  0.28697962  0.64376568  0.89739870  1.0
  O  O16  1  0.77792755  0.64563715  0.36301428  1.0
  O  O17  1  0.77792755  0.35436285  0.86301428  1.0
  O  O18  1  0.22207245  0.64563715  0.13698572  1.0
  O  O19  1  0.22207245  0.35436285  0.63698572  1.0
  O  O20  1  0.85200168  0.89447273  0.90607176  1.0
  O  O21  1  0.85200168  0.10552727  0.40607176  1.0
  O  O22  1  0.14799832  0.89447273  0.59392824  1.0
  O  O23  1  0.14799832  0.10552727  0.09392824  1.0
