# generated using pymatgen
data_Co3SiW2
_symmetry_space_group_name_H-M   'P 1'
_cell_length_a   4.75573142
_cell_length_b   4.75573142
_cell_length_c   7.38854367
_cell_angle_alpha   90.00000000
_cell_angle_beta   90.00000000
_cell_angle_gamma   120.00000000
_symmetry_Int_Tables_number   1
_chemical_formula_structural   Co3SiW2
_chemical_formula_sum   'Co6 Si2 W4'
_cell_volume   144.71852123
_cell_formula_units_Z   2
loop_
 _symmetry_equiv_pos_site_id
 _symmetry_equiv_pos_as_xyz
  1  'x, y, z'
loop_
 _atom_site_type_symbol
 _atom_site_label
 _atom_site_symmetry_multiplicity
 _atom_site_fract_x
 _atom_site_fract_y
 _atom_site_fract_z
 _atom_site_occupancy
  Co  Co0  1  0.17055717  0.82944283  0.25000000  1.0
  Co  Co1  1  0.17055717  0.34111434  0.25000000  1.0
  Co  Co2  1  0.65888566  0.82944283  0.25000000  1.0
  Co  Co3  1  0.82944283  0.17055717  0.75000000  1.0
  Co  Co4  1  0.82944283  0.65888566  0.75000000  1.0
  Co  Co5  1  0.34111434  0.17055717  0.75000000  1.0
  Si  Si6  1  -0.00000000  0.00000000  0.50000000  1.0
  Si  Si7  1  0.00000000  -0.00000000  0.00000000  1.0
  W  W8  1  0.33333333  0.66666667  0.93599526  1.0
  W  W9  1  0.66666667  0.33333333  0.06400474  1.0
  W  W10  1  0.66666667  0.33333333  0.43599526  1.0
  W  W11  1  0.33333333  0.66666667  0.56400474  1.0
