# generated using pymatgen
data_MgAl2As2(HO)18
_symmetry_space_group_name_H-M   'P 1'
_cell_length_a   10.79208128
_cell_length_b   7.06104356
_cell_length_c   5.45021833
_cell_angle_alpha   70.33378328
_cell_angle_beta   72.49722283
_cell_angle_gamma   73.21150913
_symmetry_Int_Tables_number   1
_chemical_formula_structural   MgAl2As2(HO)18
_chemical_formula_sum   'Mg1 Al2 As2 H18 O18'
_cell_volume   364.76089595
_cell_formula_units_Z   1
loop_
 _symmetry_equiv_pos_site_id
 _symmetry_equiv_pos_as_xyz
  1  'x, y, z'
loop_
 _atom_site_type_symbol
 _atom_site_label
 _atom_site_symmetry_multiplicity
 _atom_site_fract_x
 _atom_site_fract_y
 _atom_site_fract_z
 _atom_site_occupancy
  Mg  Mg0  1  0.50000000  -0.50000000  -0.00000000  1.0
  Al  Al1  1  0.00000000  -0.50000000  -0.00000000  1.0
  Al  Al2  1  0.00000000  0.00000000  0.00000000  1.0
  As  As3  1  0.83346222  -0.57707918  -0.34959336  1.0
  As  As4  1  0.16653778  -0.42292082  0.34959336  1.0
  H  H5  1  0.37749545  -0.49467292  0.60108240  1.0
  H  H6  1  0.62250455  -0.50532708  -0.60108240  1.0
  H  H7  1  0.17193676  -0.80727070  0.73937853  1.0
  H  H8  1  0.82806324  -0.19272930  -0.73937853  1.0
  H  H9  1  0.59795653  -0.90189422  0.21097482  1.0
  H  H10  1  0.40204347  -0.09810578  -0.21097482  1.0
  H  H11  1  0.70631407  -0.44575782  0.10208666  1.0
  H  H12  1  0.29368593  -0.55424218  -0.10208666  1.0
  H  H13  1  0.44646837  -0.89424807  0.24468765  1.0
  H  H14  1  0.55353163  -0.10575193  -0.24468765  1.0
  H  H15  1  0.24582614  -0.92159975  0.19967436  1.0
  H  H16  1  0.75417386  -0.07840025  -0.19967436  1.0
  H  H17  1  0.67809115  -0.84741292  -0.28604840  1.0
  H  H18  1  0.32190885  -0.15258708  0.28604840  1.0
  H  H19  1  -0.01381671  -0.82676053  0.32774143  1.0
  H  H20  1  0.01381671  -0.17323947  0.67225857  1.0
  H  H21  1  0.77840078  -1.00051228  -0.61887321  1.0
  H  H22  1  0.22159922  0.00051228  0.61887321  1.0
  O  O23  1  0.18420359  -0.96297600  0.79346171  1.0
  O  O24  1  0.81579641  -0.03702400  -0.79346171  1.0
  O  O25  1  0.61491760  -0.45610955  0.21020362  1.0
  O  O26  1  0.38508240  -0.54389045  -0.21020362  1.0
  O  O27  1  0.00926195  -0.21697561  0.86571131  1.0
  O  O28  1  0.99073805  -0.78302439  -0.86571131  1.0
  O  O29  1  0.51022523  -0.81173687  0.22895276  1.0
  O  O30  1  0.48977477  -0.18826313  -0.22895276  1.0
  O  O31  1  0.84749852  -0.43758487  -0.15379207  1.0
  O  O32  1  0.15250148  -0.56241513  0.15379207  1.0
  O  O33  1  0.93577827  -0.81970484  -0.30826143  1.0
  O  O34  1  0.06422173  -0.18029516  0.30826143  1.0
  O  O35  1  0.30895750  -0.01203065  0.30739244  1.0
  O  O36  1  0.69104250  -0.98796935  -0.30739244  1.0
  O  O37  1  0.66980642  -0.59838952  -0.28220763  1.0
  O  O38  1  0.33019358  -0.40161048  0.28220763  1.0
  O  O39  1  0.87579891  -0.43814105  -0.68331003  1.0
  O  O40  1  0.12420109  -0.56185895  0.68331003  1.0
