# generated using pymatgen
data_Hf2Pt
_symmetry_space_group_name_H-M   'P 1'
_cell_length_a   8.83035935
_cell_length_b   8.83035935
_cell_length_c   8.83035935
_cell_angle_alpha   60.00000000
_cell_angle_beta   60.00000000
_cell_angle_gamma   60.00000000
_symmetry_Int_Tables_number   1
_chemical_formula_structural   Hf2Pt
_chemical_formula_sum   'Hf16 Pt8'
_cell_volume   486.87798096
_cell_formula_units_Z   8
loop_
 _symmetry_equiv_pos_site_id
 _symmetry_equiv_pos_as_xyz
  1  'x, y, z'
loop_
 _atom_site_type_symbol
 _atom_site_label
 _atom_site_symmetry_multiplicity
 _atom_site_fract_x
 _atom_site_fract_y
 _atom_site_fract_z
 _atom_site_occupancy
  Hf  Hf0  1  1.12500000  0.62500000  0.62500000  1.0
  Hf  Hf1  1  0.62500000  1.12500000  -0.37500000  1.0
  Hf  Hf2  1  -0.37500000  0.62500000  1.12500000  1.0
  Hf  Hf3  1  -0.37500000  0.62500000  0.62500000  1.0
  Hf  Hf4  1  0.81357332  0.81357332  -0.81357332  1.0
  Hf  Hf5  1  0.18642668  1.18642668  -0.18642668  1.0
  Hf  Hf6  1  0.81357332  -0.81357332  0.81357332  1.0
  Hf  Hf7  1  0.18642668  -0.18642668  0.18642668  1.0
  Hf  Hf8  1  -0.81357332  0.81357332  0.81357332  1.0
  Hf  Hf9  1  -0.18642668  0.18642668  0.18642668  1.0
  Hf  Hf10  1  0.43642668  1.43642668  0.06357332  1.0
  Hf  Hf11  1  0.06357332  0.06357332  0.43642668  1.0
  Hf  Hf12  1  0.43642668  1.06357332  0.43642668  1.0
  Hf  Hf13  1  0.06357332  1.43642668  0.06357332  1.0
  Hf  Hf14  1  0.06357332  1.43642668  0.43642668  1.0
  Hf  Hf15  1  0.43642668  1.06357332  0.06357332  1.0
  Pt  Pt16  1  -0.20678631  0.40226210  0.40226210  1.0
  Pt  Pt17  1  0.40226210  -0.20678631  0.40226210  1.0
  Pt  Pt18  1  0.40226210  1.40226210  -0.20678631  1.0
  Pt  Pt19  1  0.40226210  1.40226210  0.40226210  1.0
  Pt  Pt20  1  0.45678631  0.84773790  -0.15226210  1.0
  Pt  Pt21  1  0.84773790  0.45678631  0.84773790  1.0
  Pt  Pt22  1  0.84773790  0.84773790  -0.54321369  1.0
  Pt  Pt23  1  0.84773790  0.84773790  0.84773790  1.0
