# generated using pymatgen
data_Rb2PH3SeO8
_symmetry_space_group_name_H-M   'P 1'
_cell_length_a   7.67201596
_cell_length_b   7.78223390
_cell_length_c   10.02772515
_cell_angle_alpha   90.00000000
_cell_angle_beta   128.87703644
_cell_angle_gamma   90.00000000
_symmetry_Int_Tables_number   1
_chemical_formula_structural   Rb2PH3SeO8
_chemical_formula_sum   'Rb4 P2 H6 Se2 O16'
_cell_volume   466.09226588
_cell_formula_units_Z   2
loop_
 _symmetry_equiv_pos_site_id
 _symmetry_equiv_pos_as_xyz
  1  'x, y, z'
loop_
 _atom_site_type_symbol
 _atom_site_label
 _atom_site_symmetry_multiplicity
 _atom_site_fract_x
 _atom_site_fract_y
 _atom_site_fract_z
 _atom_site_occupancy
  Rb  Rb0  1  0.00629032  0.93677228  0.51045049  1.0
  Rb  Rb1  1  0.00629032  0.06322772  0.01045049  1.0
  Rb  Rb2  1  0.21999381  0.44438701  0.43322541  1.0
  Rb  Rb3  1  0.21999381  0.55561299  0.93322541  1.0
  P  P4  1  0.77042485  0.44892043  0.47227518  1.0
  P  P5  1  0.77042485  0.55107957  0.97227518  1.0
  H  H6  1  0.73755550  0.76783876  0.10508670  1.0
  H  H7  1  0.73755550  0.23216124  0.60508670  1.0
  H  H8  1  0.64550112  0.73671166  0.75413638  1.0
  H  H9  1  0.64550112  0.26328834  0.25413638  1.0
  H  H10  1  0.51729974  0.66357553  0.34303848  1.0
  H  H11  1  0.51729974  0.33642447  0.84303848  1.0
  Se  Se12  1  0.47397319  0.94187820  0.47980612  1.0
  Se  Se13  1  0.47397319  0.05812180  0.97980612  1.0
  O  O14  1  0.96025129  0.42544533  0.05324500  1.0
  O  O15  1  0.96025129  0.57455467  0.55324500  1.0
  O  O16  1  0.78946124  0.70247541  0.87628174  1.0
  O  O17  1  0.78946124  0.29752459  0.37628174  1.0
  O  O18  1  0.77063285  0.63796056  0.11621444  1.0
  O  O19  1  0.77063285  0.36203944  0.61621444  1.0
  O  O20  1  0.72307226  0.96282380  0.12113760  1.0
  O  O21  1  0.72307226  0.03717620  0.62113760  1.0
  O  O22  1  0.52965193  0.53021109  0.33508395  1.0
  O  O23  1  0.52965193  0.46978891  0.83508395  1.0
  O  O24  1  0.47095542  0.84993754  0.32659990  1.0
  O  O25  1  0.47095542  0.15006246  0.82659990  1.0
  O  O26  1  0.44141896  0.21308652  0.07974765  1.0
  O  O27  1  0.44141896  0.78691348  0.57974765  1.0
  O  O28  1  0.26551749  0.91936220  0.89077097  1.0
  O  O29  1  0.26551749  0.08063780  0.39077097  1.0
