# generated using pymatgen
data_MnCu2SiTe4
_symmetry_space_group_name_H-M   'P 1'
_cell_length_a   7.37105757
_cell_length_b   7.37105757
_cell_length_c   7.37105757
_cell_angle_alpha   130.97188308
_cell_angle_beta   130.97188308
_cell_angle_gamma   71.85775473
_symmetry_Int_Tables_number   1
_chemical_formula_structural   MnCu2SiTe4
_chemical_formula_sum   'Mn1 Cu2 Si1 Te4'
_cell_volume   223.31589432
_cell_formula_units_Z   1
loop_
 _symmetry_equiv_pos_site_id
 _symmetry_equiv_pos_as_xyz
  1  'x, y, z'
loop_
 _atom_site_type_symbol
 _atom_site_label
 _atom_site_symmetry_multiplicity
 _atom_site_fract_x
 _atom_site_fract_y
 _atom_site_fract_z
 _atom_site_occupancy
  Mn  Mn0  1  0.00000000  0.00000000  0.00000000  1.0
  Cu  Cu1  1  0.25000000  0.75000000  0.50000000  1.0
  Cu  Cu2  1  0.75000000  0.25000000  0.50000000  1.0
  Si  Si3  1  0.50000000  0.50000000  1.00000000  1.0
  Te  Te4  1  0.39124402  0.86902381  1.00000000  1.0
  Te  Te5  1  1.13097619  1.13097619  1.52222021  1.0
  Te  Te6  1  0.60875598  0.60875598  0.47777979  1.0
  Te  Te7  1  0.86902381  0.39124402  1.00000000  1.0
