# generated using pymatgen
data_KH3(SeO3)2
_symmetry_space_group_name_H-M   'P 1'
_cell_length_a   16.40752024
_cell_length_b   6.50260013
_cell_length_c   6.53586436
_cell_angle_alpha   90.00000000
_cell_angle_beta   90.00000000
_cell_angle_gamma   90.00000000
_symmetry_Int_Tables_number   1
_chemical_formula_structural   KH3(SeO3)2
_chemical_formula_sum   'K4 H12 Se8 O24'
_cell_volume   697.32145443
_cell_formula_units_Z   4
loop_
 _symmetry_equiv_pos_site_id
 _symmetry_equiv_pos_as_xyz
  1  'x, y, z'
loop_
 _atom_site_type_symbol
 _atom_site_label
 _atom_site_symmetry_multiplicity
 _atom_site_fract_x
 _atom_site_fract_y
 _atom_site_fract_z
 _atom_site_occupancy
  K  K0  1  0.50000000  0.80585878  0.75000000  1.0
  K  K1  1  0.50000000  0.19414122  0.25000000  1.0
  K  K2  1  0.00000000  0.30585878  0.75000000  1.0
  K  K3  1  0.00000000  0.69414122  0.25000000  1.0
  H  H4  1  0.33303870  0.06032211  0.53426355  1.0
  H  H5  1  0.33303870  0.93967789  0.03426355  1.0
  H  H6  1  0.83303870  0.56032211  0.96573645  1.0
  H  H7  1  0.83303870  0.43967789  0.46573645  1.0
  H  H8  1  0.66696130  0.06032211  0.96573645  1.0
  H  H9  1  0.66696130  0.93967789  0.46573645  1.0
  H  H10  1  0.16696130  0.56032211  0.53426355  1.0
  H  H11  1  0.16696130  0.43967789  0.03426355  1.0
  H  H12  1  0.50000000  0.37460573  0.75000000  1.0
  H  H13  1  0.50000000  0.62539427  0.25000000  1.0
  H  H14  1  0.00000000  0.87460573  0.75000000  1.0
  H  H15  1  0.00000000  0.12539427  0.25000000  1.0
  Se  Se16  1  0.35221620  0.29977444  0.79522893  1.0
  Se  Se17  1  0.35221620  0.70022556  0.29522893  1.0
  Se  Se18  1  0.85221620  0.79977444  0.70477107  1.0
  Se  Se19  1  0.85221620  0.20022556  0.20477107  1.0
  Se  Se20  1  0.64778380  0.29977444  0.70477107  1.0
  Se  Se21  1  0.64778380  0.70022556  0.20477107  1.0
  Se  Se22  1  0.14778380  0.79977444  0.79522893  1.0
  Se  Se23  1  0.14778380  0.20022556  0.29522893  1.0
  O  O24  1  0.43608508  0.38732629  0.65566523  1.0
  O  O25  1  0.43608508  0.61267371  0.15566523  1.0
  O  O26  1  0.93608508  0.88732629  0.84433477  1.0
  O  O27  1  0.93608508  0.11267371  0.34433477  1.0
  O  O28  1  0.56391492  0.38732629  0.84433477  1.0
  O  O29  1  0.56391492  0.61267371  0.34433477  1.0
  O  O30  1  0.06391492  0.88732629  0.65566523  1.0
  O  O31  1  0.06391492  0.11267371  0.15566523  1.0
  O  O32  1  0.39344924  0.10395550  0.92975943  1.0
  O  O33  1  0.39344924  0.89604450  0.42975943  1.0
  O  O34  1  0.89344924  0.60395550  0.57024057  1.0
  O  O35  1  0.89344924  0.39604450  0.07024057  1.0
  O  O36  1  0.60655076  0.10395550  0.57024057  1.0
  O  O37  1  0.60655076  0.89604450  0.07024057  1.0
  O  O38  1  0.10655076  0.60395550  0.92975943  1.0
  O  O39  1  0.10655076  0.39604450  0.42975943  1.0
  O  O40  1  0.29726495  0.17311969  0.59630431  1.0
  O  O41  1  0.29726495  0.82688031  0.09630431  1.0
  O  O42  1  0.79726495  0.67311969  0.90369569  1.0
  O  O43  1  0.79726495  0.32688031  0.40369569  1.0
  O  O44  1  0.70273505  0.17311969  0.90369569  1.0
  O  O45  1  0.70273505  0.82688031  0.40369569  1.0
  O  O46  1  0.20273505  0.67311969  0.59630431  1.0
  O  O47  1  0.20273505  0.32688031  0.09630431  1.0
