# generated using pymatgen
data_CdHgC4(SeN)4
_symmetry_space_group_name_H-M   'P 1'
_cell_length_a   8.74264964
_cell_length_b   8.74264964
_cell_length_c   8.74264964
_cell_angle_alpha   95.25440335
_cell_angle_beta   95.25440335
_cell_angle_gamma   144.77007301
_symmetry_Int_Tables_number   1
_chemical_formula_structural   CdHgC4(SeN)4
_chemical_formula_sum   'Cd1 Hg1 C4 Se4 N4'
_cell_volume   367.40301939
_cell_formula_units_Z   1
loop_
 _symmetry_equiv_pos_site_id
 _symmetry_equiv_pos_as_xyz
  1  'x, y, z'
loop_
 _atom_site_type_symbol
 _atom_site_label
 _atom_site_symmetry_multiplicity
 _atom_site_fract_x
 _atom_site_fract_y
 _atom_site_fract_z
 _atom_site_occupancy
  Cd  Cd0  1  0.00000000  0.00000000  0.00000000  1.0
  Hg  Hg1  1  0.75000000  0.25000000  0.50000000  1.0
  C  C2  1  0.57508424  0.41417264  0.71015834  1.0
  C  C3  1  1.13507410  0.42491576  0.83908841  1.0
  C  C4  1  0.70401430  0.86492590  1.28984166  1.0
  C  C5  1  0.58582736  1.29598570  1.16091159  1.0
  Se  Se6  1  1.54834582  1.79010654  1.44905040  1.0
  Se  Se7  1  0.90070457  1.45165418  1.24176071  1.0
  Se  Se8  1  1.34105614  1.09929543  0.55094960  1.0
  Se  Se9  1  1.20989346  0.65894386  0.75823929  1.0
  N  N10  1  0.72076959  0.61591606  0.81328294  1.0
  N  N11  1  1.09251335  0.27923041  0.89514646  1.0
  N  N12  1  0.80263312  0.90748665  1.18671706  1.0
  N  N13  1  0.38408394  1.19736688  1.10485354  1.0
