# generated using pymatgen
data_SrZnBi2
_symmetry_space_group_name_H-M   'P 1'
_cell_length_a   11.71823258
_cell_length_b   11.71823258
_cell_length_c   11.71823258
_cell_angle_alpha   157.23889425
_cell_angle_beta   157.23889425
_cell_angle_gamma   32.40811833
_symmetry_Int_Tables_number   1
_chemical_formula_structural   SrZnBi2
_chemical_formula_sum   'Sr2 Zn2 Bi4'
_cell_volume   240.66003014
_cell_formula_units_Z   2
loop_
 _symmetry_equiv_pos_site_id
 _symmetry_equiv_pos_as_xyz
  1  'x, y, z'
loop_
 _atom_site_type_symbol
 _atom_site_label
 _atom_site_symmetry_multiplicity
 _atom_site_fract_x
 _atom_site_fract_y
 _atom_site_fract_z
 _atom_site_occupancy
  Sr  Sr0  1  0.87842073  0.87842073  1.00000000  1.0
  Sr  Sr1  1  0.12157927  0.12157927  -0.00000000  1.0
  Zn  Zn2  1  0.25000000  0.75000000  0.50000000  1.0
  Zn  Zn3  1  0.75000000  0.25000000  0.50000000  1.0
  Bi  Bi4  1  0.67172701  0.67172701  1.00000000  1.0
  Bi  Bi5  1  0.32827299  0.32827299  0.00000000  1.0
  Bi  Bi6  1  0.50000000  0.00000000  0.50000000  1.0
  Bi  Bi7  1  0.00000000  0.50000000  0.50000000  1.0
