# generated using pymatgen
data_H6N2O
_symmetry_space_group_name_H-M   'P 1'
_cell_length_a   4.82415122
_cell_length_b   4.82415122
_cell_length_c   11.18506179
_cell_angle_alpha   90.00000000
_cell_angle_beta   90.00000000
_cell_angle_gamma   120.00000000
_symmetry_Int_Tables_number   1
_chemical_formula_structural   H6N2O
_chemical_formula_sum   'H18 N6 O3'
_cell_volume   225.42955057
_cell_formula_units_Z   3
loop_
 _symmetry_equiv_pos_site_id
 _symmetry_equiv_pos_as_xyz
  1  'x, y, z'
loop_
 _atom_site_type_symbol
 _atom_site_label
 _atom_site_symmetry_multiplicity
 _atom_site_fract_x
 _atom_site_fract_y
 _atom_site_fract_z
 _atom_site_occupancy
  H  H0  1  0.39863635  0.79181551  0.89894904  1.0
  H  H1  1  0.79181551  0.39863635  0.10105096  1.0
  H  H2  1  0.39317916  0.60136365  0.56561571  1.0
  H  H3  1  0.20818449  0.60682084  0.23228238  1.0
  H  H4  1  0.60136365  0.39317916  0.43438429  1.0
  H  H5  1  0.60682084  0.20818449  0.76771762  1.0
  H  H6  1  0.91356385  0.77303351  0.94986716  1.0
  H  H7  1  0.77303351  0.91356385  0.05013284  1.0
  H  H8  1  0.85946965  0.08643615  0.61653382  1.0
  H  H9  1  0.22696649  0.14053035  0.28320049  1.0
  H  H10  1  0.08643615  0.85946965  0.38346618  1.0
  H  H11  1  0.14053035  0.22696649  0.71679951  1.0
  H  H12  1  0.14225289  0.68453220  0.78676924  1.0
  H  H13  1  0.68453220  0.14225289  0.21323076  1.0
  H  H14  1  0.54227931  0.85774711  0.45343590  1.0
  H  H15  1  0.31546780  0.45772069  0.12010257  1.0
  H  H16  1  0.85774711  0.54227931  0.54656410  1.0
  H  H17  1  0.45772069  0.31546780  0.87989743  1.0
  N  N18  1  0.23564673  0.83938527  0.85749366  1.0
  N  N19  1  0.83938527  0.23564673  0.14250634  1.0
  N  N20  1  0.60373854  0.76435327  0.52416033  1.0
  N  N21  1  0.16061473  0.39626146  0.19082700  1.0
  N  N22  1  0.76435327  0.60373854  0.47583967  1.0
  N  N23  1  0.39626146  0.16061473  0.80917300  1.0
  O  O24  1  0.71758668  0.71758668  0.00000000  1.0
  O  O25  1  0.00000000  0.28241332  0.66666667  1.0
  O  O26  1  0.28241332  -0.00000000  0.33333333  1.0
