# generated using pymatgen
data_MnH8N2(OF2)2
_symmetry_space_group_name_H-M   'P 1'
_cell_length_a   8.54911853
_cell_length_b   6.03818694
_cell_length_c   5.78271010
_cell_angle_alpha   90.00000000
_cell_angle_beta   92.70864499
_cell_angle_gamma   90.00000000
_symmetry_Int_Tables_number   1
_chemical_formula_structural   MnH8N2(OF2)2
_chemical_formula_sum   'Mn2 H16 N4 O4 F8'
_cell_volume   298.17678631
_cell_formula_units_Z   2
loop_
 _symmetry_equiv_pos_site_id
 _symmetry_equiv_pos_as_xyz
  1  'x, y, z'
loop_
 _atom_site_type_symbol
 _atom_site_label
 _atom_site_symmetry_multiplicity
 _atom_site_fract_x
 _atom_site_fract_y
 _atom_site_fract_z
 _atom_site_occupancy
  Mn  Mn0  1  0.00000000  0.50000000  0.00000000  1.0
  Mn  Mn1  1  -0.00000000  0.00000000  0.50000000  1.0
  H  H2  1  0.82163391  0.41769770  0.45027191  1.0
  H  H3  1  0.82163391  0.08230230  0.95027191  1.0
  H  H4  1  0.17836609  0.91769770  0.04972809  1.0
  H  H5  1  0.17836609  0.58230230  0.54972809  1.0
  H  H6  1  0.72831421  0.83008820  0.97849889  1.0
  H  H7  1  0.72831421  0.66991180  0.47849889  1.0
  H  H8  1  0.27168579  0.33008820  0.52150111  1.0
  H  H9  1  0.27168579  0.16991180  0.02150111  1.0
  H  H10  1  0.67277478  0.04978220  0.13808977  1.0
  H  H11  1  0.67277478  0.45021780  0.63808977  1.0
  H  H12  1  0.32722522  0.54978220  0.36191023  1.0
  H  H13  1  0.32722522  0.95021780  0.86191023  1.0
  H  H14  1  0.65243757  0.48080699  0.15807731  1.0
  H  H15  1  0.65243757  0.01919301  0.65807731  1.0
  H  H16  1  0.34756243  0.98080699  0.34192269  1.0
  H  H17  1  0.34756243  0.51919301  0.84192269  1.0
  N  N18  1  0.71431870  0.49576876  0.48026069  1.0
  N  N19  1  0.71431870  0.00423124  0.98026069  1.0
  N  N20  1  0.28568130  0.99576876  0.01973931  1.0
  N  N21  1  0.28568130  0.50423124  0.51973931  1.0
  O  O22  1  0.60227984  0.42939597  0.30503170  1.0
  O  O23  1  0.60227984  0.07060403  0.80503170  1.0
  O  O24  1  0.39772016  0.92939597  0.19496830  1.0
  O  O25  1  0.39772016  0.57060403  0.69496830  1.0
  F  F26  1  0.96479856  0.29903122  0.30200242  1.0
  F  F27  1  0.96479856  0.20096878  0.80200242  1.0
  F  F28  1  0.03520144  0.79903122  0.19799758  1.0
  F  F29  1  0.03520144  0.70096878  0.69799758  1.0
  F  F30  1  0.75302697  0.93579750  0.46546379  1.0
  F  F31  1  0.75302697  0.56420250  0.96546379  1.0
  F  F32  1  0.24697303  0.43579750  0.03453621  1.0
  F  F33  1  0.24697303  0.06420250  0.53453621  1.0
