# generated using pymatgen
data_BiI3
_symmetry_space_group_name_H-M   'P 1'
_cell_length_a   7.82057376
_cell_length_b   13.92966855
_cell_length_c   7.86409581
_cell_angle_alpha   90.00000000
_cell_angle_beta   90.00000000
_cell_angle_gamma   90.00000000
_symmetry_Int_Tables_number   1
_chemical_formula_structural   BiI3
_chemical_formula_sum   'Bi4 I12'
_cell_volume   856.69887183
_cell_formula_units_Z   4
loop_
 _symmetry_equiv_pos_site_id
 _symmetry_equiv_pos_as_xyz
  1  'x, y, z'
loop_
 _atom_site_type_symbol
 _atom_site_label
 _atom_site_symmetry_multiplicity
 _atom_site_fract_x
 _atom_site_fract_y
 _atom_site_fract_z
 _atom_site_occupancy
  Bi  Bi0  1  0.95580129  0.75000000  0.25032991  1.0
  Bi  Bi1  1  0.45580129  0.75000000  0.24967009  1.0
  Bi  Bi2  1  0.04419871  0.25000000  0.74967009  1.0
  Bi  Bi3  1  0.54419871  0.25000000  0.75032991  1.0
  I  I4  1  1.20511924  0.75000000  0.94012053  1.0
  I  I5  1  0.70511924  0.75000000  0.55987947  1.0
  I  I6  1  -0.20511924  0.25000000  0.05987947  1.0
  I  I7  1  0.29488076  0.25000000  0.44012053  1.0
  I  I8  1  0.70596379  0.59847519  0.09515001  1.0
  I  I9  1  0.20596379  0.90152481  0.40484999  1.0
  I  I10  1  0.29403621  0.09847519  0.90484999  1.0
  I  I11  1  0.79403621  0.40152481  0.59515001  1.0
  I  I12  1  0.29403621  0.40152481  0.90484999  1.0
  I  I13  1  0.79403621  0.09847519  0.59515001  1.0
  I  I14  1  0.70596379  0.90152481  0.09515001  1.0
  I  I15  1  0.20596379  0.59847519  0.40484999  1.0
