# generated using pymatgen
data_Ba2Na3B6O12F
_symmetry_space_group_name_H-M   'P 1'
_cell_length_a   7.44631732
_cell_length_b   7.44631732
_cell_length_c   12.92005461
_cell_angle_alpha   90.00000000
_cell_angle_beta   90.00000000
_cell_angle_gamma   120.00000000
_symmetry_Int_Tables_number   1
_chemical_formula_structural   Ba2Na3B6O12F
_chemical_formula_sum   'Ba4 Na6 B12 O24 F2'
_cell_volume   620.40895733
_cell_formula_units_Z   2
loop_
 _symmetry_equiv_pos_site_id
 _symmetry_equiv_pos_as_xyz
  1  'x, y, z'
loop_
 _atom_site_type_symbol
 _atom_site_label
 _atom_site_symmetry_multiplicity
 _atom_site_fract_x
 _atom_site_fract_y
 _atom_site_fract_z
 _atom_site_occupancy
  Ba  Ba0  1  0.33333333  0.66666667  0.46728606  1.0
  Ba  Ba1  1  0.33333333  0.66666667  0.03271394  1.0
  Ba  Ba2  1  0.66666667  0.33333333  0.96728606  1.0
  Ba  Ba3  1  0.66666667  0.33333333  0.53271394  1.0
  Na  Na4  1  0.57212003  0.55994241  0.25000000  1.0
  Na  Na5  1  0.55994241  0.98782238  0.75000000  1.0
  Na  Na6  1  0.98782238  0.42787997  0.25000000  1.0
  Na  Na7  1  0.44005759  0.01217762  0.25000000  1.0
  Na  Na8  1  0.42787997  0.44005759  0.75000000  1.0
  Na  Na9  1  0.01217762  0.57212003  0.75000000  1.0
  B  B10  1  0.96942129  0.79268365  0.38228431  1.0
  B  B11  1  0.96942129  0.79268365  0.11771569  1.0
  B  B12  1  0.79268365  0.82326235  0.88228431  1.0
  B  B13  1  0.79268365  0.82326235  0.61771569  1.0
  B  B14  1  0.82326235  0.03057871  0.38228431  1.0
  B  B15  1  0.82326235  0.03057871  0.11771569  1.0
  B  B16  1  0.20731635  0.17673765  0.38228431  1.0
  B  B17  1  0.20731635  0.17673765  0.11771569  1.0
  B  B18  1  0.03057871  0.20731635  0.88228431  1.0
  B  B19  1  0.03057871  0.20731635  0.61771569  1.0
  B  B20  1  0.17673765  0.96942129  0.88228431  1.0
  B  B21  1  0.17673765  0.96942129  0.61771569  1.0
  O  O22  1  0.17043017  0.97048430  0.37886110  1.0
  O  O23  1  0.17043017  0.97048430  0.12113890  1.0
  O  O24  1  0.97048430  0.80005413  0.87886110  1.0
  O  O25  1  0.97048430  0.80005413  0.62113890  1.0
  O  O26  1  0.80005413  0.82956983  0.37886110  1.0
  O  O27  1  0.80005413  0.82956983  0.12113890  1.0
  O  O28  1  0.02951570  0.19994587  0.37886110  1.0
  O  O29  1  0.02951570  0.19994587  0.12113890  1.0
  O  O30  1  0.82956983  0.02951570  0.87886110  1.0
  O  O31  1  0.82956983  0.02951570  0.62113890  1.0
  O  O32  1  0.19994587  0.17043017  0.87886110  1.0
  O  O33  1  0.19994587  0.17043017  0.62113890  1.0
  O  O34  1  0.94200432  0.60311475  0.38832265  1.0
  O  O35  1  0.94200432  0.60311475  0.11167735  1.0
  O  O36  1  0.60311475  0.66111043  0.88832265  1.0
  O  O37  1  0.60311475  0.66111043  0.61167735  1.0
  O  O38  1  0.66111043  0.05799568  0.38832265  1.0
  O  O39  1  0.66111043  0.05799568  0.11167735  1.0
  O  O40  1  0.39688525  0.33888957  0.38832265  1.0
  O  O41  1  0.39688525  0.33888957  0.11167735  1.0
  O  O42  1  0.05799568  0.39688525  0.88832265  1.0
  O  O43  1  0.05799568  0.39688525  0.61167735  1.0
  O  O44  1  0.33888957  0.94200432  0.88832265  1.0
  O  O45  1  0.33888957  0.94200432  0.61167735  1.0
  F  F46  1  0.33333333  0.66666667  0.25000000  1.0
  F  F47  1  0.66666667  0.33333333  0.75000000  1.0
