# generated using pymatgen
data_CaO
_symmetry_space_group_name_H-M   'P 1'
_cell_length_a   3.32400096
_cell_length_b   3.32400096
_cell_length_c   17.07351073
_cell_angle_alpha   90.00000000
_cell_angle_beta   90.00000000
_cell_angle_gamma   89.98482457
_symmetry_Int_Tables_number   1
_chemical_formula_structural   CaO
_chemical_formula_sum   'Ca4 O4'
_cell_volume   188.64491235
_cell_formula_units_Z   4
loop_
 _symmetry_equiv_pos_site_id
 _symmetry_equiv_pos_as_xyz
  1  'x, y, z'
loop_
 _atom_site_type_symbol
 _atom_site_label
 _atom_site_symmetry_multiplicity
 _atom_site_fract_x
 _atom_site_fract_y
 _atom_site_fract_z
 _atom_site_occupancy
  Ca  Ca0  1  0.06727411  0.93272589  0.17993730  1.0
  Ca  Ca1  1  -0.06727411  1.06727411  0.82006270  1.0
  Ca  Ca2  1  0.43272589  0.56727411  0.67993730  1.0
  Ca  Ca3  1  -0.43272589  1.43272589  0.32006270  1.0
  O  O4  1  0.06731305  0.93268695  0.31798532  1.0
  O  O5  1  -0.06731305  1.06731305  0.68201468  1.0
  O  O6  1  0.43268695  0.56731305  0.81798532  1.0
  O  O7  1  -0.43268695  1.43268695  0.18201468  1.0
