# generated using pymatgen
data_Mo3Pb
_symmetry_space_group_name_H-M   'P 1'
_cell_length_a   5.17855989
_cell_length_b   5.17855989
_cell_length_c   5.17855989
_cell_angle_alpha   90.00000000
_cell_angle_beta   90.00000000
_cell_angle_gamma   90.00000000
_symmetry_Int_Tables_number   1
_chemical_formula_structural   Mo3Pb
_chemical_formula_sum   'Mo6 Pb2'
_cell_volume   138.87593967
_cell_formula_units_Z   2
loop_
 _symmetry_equiv_pos_site_id
 _symmetry_equiv_pos_as_xyz
  1  'x, y, z'
loop_
 _atom_site_type_symbol
 _atom_site_label
 _atom_site_symmetry_multiplicity
 _atom_site_fract_x
 _atom_site_fract_y
 _atom_site_fract_z
 _atom_site_occupancy
  Mo  Mo0  1  0.25000000  0.00000000  0.50000000  1.0
  Mo  Mo1  1  0.75000000  -0.00000000  0.50000000  1.0
  Mo  Mo2  1  0.50000000  0.25000000  -0.00000000  1.0
  Mo  Mo3  1  0.50000000  0.75000000  0.00000000  1.0
  Mo  Mo4  1  0.00000000  0.50000000  0.75000000  1.0
  Mo  Mo5  1  0.00000000  0.50000000  0.25000000  1.0
  Pb  Pb6  1  0.50000000  0.50000000  0.50000000  1.0
  Pb  Pb7  1  0.00000000  0.00000000  0.00000000  1.0
