# generated using pymatgen
data_Gd2TeO6
_symmetry_space_group_name_H-M   'P 1'
_cell_length_a   5.41668109
_cell_length_b   9.33034456
_cell_length_c   10.23390282
_cell_angle_alpha   90.00000000
_cell_angle_beta   90.00000000
_cell_angle_gamma   90.00000000
_symmetry_Int_Tables_number   1
_chemical_formula_structural   Gd2TeO6
_chemical_formula_sum   'Gd8 Te4 O24'
_cell_volume   517.21634069
_cell_formula_units_Z   4
loop_
 _symmetry_equiv_pos_site_id
 _symmetry_equiv_pos_as_xyz
  1  'x, y, z'
loop_
 _atom_site_type_symbol
 _atom_site_label
 _atom_site_symmetry_multiplicity
 _atom_site_fract_x
 _atom_site_fract_y
 _atom_site_fract_z
 _atom_site_occupancy
  Gd  Gd0  1  0.48011699  0.89675843  0.03841903  1.0
  Gd  Gd1  1  0.98011699  0.60324157  0.96158097  1.0
  Gd  Gd2  1  0.51988301  0.39675843  0.46158097  1.0
  Gd  Gd3  1  0.01988301  0.10324157  0.53841903  1.0
  Gd  Gd4  1  0.46204264  0.78267067  0.63530377  1.0
  Gd  Gd5  1  0.96204264  0.71732933  0.36469623  1.0
  Gd  Gd6  1  0.53795736  0.28267067  0.86469623  1.0
  Gd  Gd7  1  0.03795736  0.21732933  0.13530377  1.0
  Te  Te8  1  0.96156188  0.99503901  0.85246615  1.0
  Te  Te9  1  0.46156188  0.50496099  0.14753385  1.0
  Te  Te10  1  0.03843812  0.49503901  0.64753385  1.0
  Te  Te11  1  0.53843812  0.00496099  0.35246615  1.0
  O  O12  1  0.31990501  0.35828623  0.67781529  1.0
  O  O13  1  0.81990501  0.14171377  0.32218471  1.0
  O  O14  1  0.68009499  0.85828623  0.82218471  1.0
  O  O15  1  0.18009499  0.64171377  0.17781529  1.0
  O  O16  1  0.24556958  0.58686189  0.50474075  1.0
  O  O17  1  0.74556958  0.91313811  0.49525925  1.0
  O  O18  1  0.75443042  0.08686189  0.99525925  1.0
  O  O19  1  0.25443042  0.41313811  0.00474075  1.0
  O  O20  1  0.18694582  0.64222867  0.76235578  1.0
  O  O21  1  0.68694582  0.85777133  0.23764422  1.0
  O  O22  1  0.81305418  0.14222867  0.73764422  1.0
  O  O23  1  0.31305418  0.35777133  0.26235578  1.0
  O  O24  1  0.17041670  0.94872557  0.70022300  1.0
  O  O25  1  0.67041670  0.55127443  0.29977700  1.0
  O  O26  1  0.82958330  0.44872557  0.79977700  1.0
  O  O27  1  0.32958330  0.05127443  0.20022300  1.0
  O  O28  1  0.08714789  0.84390799  0.97290106  1.0
  O  O29  1  0.58714789  0.65609201  0.02709894  1.0
  O  O30  1  0.91285211  0.34390799  0.52709894  1.0
  O  O31  1  0.41285211  0.15609201  0.47290106  1.0
  O  O32  1  0.76592570  0.61449453  0.56663776  1.0
  O  O33  1  0.26592570  0.88550547  0.43336224  1.0
  O  O34  1  0.23407430  0.11449453  0.93336224  1.0
  O  O35  1  0.73407430  0.38550547  0.06663776  1.0
