# generated using pymatgen
data_C3NCl
_symmetry_space_group_name_H-M   'P 1'
_cell_length_a   5.32125051
_cell_length_b   5.32125051
_cell_length_c   8.87842670
_cell_angle_alpha   75.25559034
_cell_angle_beta   104.74440966
_cell_angle_gamma   101.82636869
_symmetry_Int_Tables_number   1
_chemical_formula_structural   C3NCl
_chemical_formula_sum   'C6 N2 Cl2'
_cell_volume   232.45894686
_cell_formula_units_Z   2
loop_
 _symmetry_equiv_pos_site_id
 _symmetry_equiv_pos_as_xyz
  1  'x, y, z'
loop_
 _atom_site_type_symbol
 _atom_site_label
 _atom_site_symmetry_multiplicity
 _atom_site_fract_x
 _atom_site_fract_y
 _atom_site_fract_z
 _atom_site_occupancy
  C  C0  1  1.25171801  -0.25171801  0.25780837  1.0
  C  C1  1  0.74828199  0.25171801  0.74219163  1.0
  C  C2  1  1.25397271  -0.25397271  0.40500879  1.0
  C  C3  1  0.74602729  0.25397271  0.59499121  1.0
  C  C4  1  1.26049767  -0.26049767  0.55157953  1.0
  C  C5  1  0.73950233  0.26049767  0.44842047  1.0
  N  N6  1  1.24968900  -0.24968900  0.12015847  1.0
  N  N7  1  0.75031100  0.24968900  0.87984153  1.0
  Cl  Cl8  1  1.50000000  -0.00000000  -0.00000000  1.0
  Cl  Cl9  1  1.00000000  0.50000000  -0.00000000  1.0
