# generated using pymatgen
data_RbBaMnO4
_symmetry_space_group_name_H-M   'P 1'
_cell_length_a   7.97920650
_cell_length_b   5.95162277
_cell_length_c   10.45189199
_cell_angle_alpha   90.00000000
_cell_angle_beta   90.00000000
_cell_angle_gamma   90.00000000
_symmetry_Int_Tables_number   1
_chemical_formula_structural   RbBaMnO4
_chemical_formula_sum   'Rb4 Ba4 Mn4 O16'
_cell_volume   496.35227195
_cell_formula_units_Z   4
loop_
 _symmetry_equiv_pos_site_id
 _symmetry_equiv_pos_as_xyz
  1  'x, y, z'
loop_
 _atom_site_type_symbol
 _atom_site_label
 _atom_site_symmetry_multiplicity
 _atom_site_fract_x
 _atom_site_fract_y
 _atom_site_fract_z
 _atom_site_occupancy
  Rb  Rb0  1  0.84443851  0.75000000  0.41835939  1.0
  Rb  Rb1  1  0.34443851  0.75000000  0.08164061  1.0
  Rb  Rb2  1  0.15556149  0.25000000  0.58164061  1.0
  Rb  Rb3  1  0.65556149  0.25000000  0.91835939  1.0
  Ba  Ba4  1  0.50091413  0.75000000  0.69174359  1.0
  Ba  Ba5  1  0.00091413  0.75000000  0.80825641  1.0
  Ba  Ba6  1  0.49908587  0.25000000  0.30825641  1.0
  Ba  Ba7  1  0.99908587  0.25000000  0.19174359  1.0
  Mn  Mn8  1  0.77223957  0.75000000  0.08502231  1.0
  Mn  Mn9  1  0.27223957  0.75000000  0.41497769  1.0
  Mn  Mn10  1  0.22776043  0.25000000  0.91497769  1.0
  Mn  Mn11  1  0.72776043  0.25000000  0.58502231  1.0
  O  O12  1  0.70983317  0.98676093  0.16349875  1.0
  O  O13  1  0.70983317  0.51323907  0.16349875  1.0
  O  O14  1  0.20983317  0.98676093  0.33650125  1.0
  O  O15  1  0.20983317  0.51323907  0.33650125  1.0
  O  O16  1  0.29016683  0.48676093  0.83650125  1.0
  O  O17  1  0.29016683  0.01323907  0.83650125  1.0
  O  O18  1  0.79016683  0.48676093  0.66349875  1.0
  O  O19  1  0.79016683  0.01323907  0.66349875  1.0
  O  O20  1  0.98470796  0.75000000  0.07576779  1.0
  O  O21  1  0.48470796  0.75000000  0.42423221  1.0
  O  O22  1  0.01529204  0.25000000  0.92423221  1.0
  O  O23  1  0.51529204  0.25000000  0.57576779  1.0
  O  O24  1  0.19503541  0.75000000  0.56789781  1.0
  O  O25  1  0.69503541  0.75000000  0.93210219  1.0
  O  O26  1  0.80496459  0.25000000  0.43210219  1.0
  O  O27  1  0.30496459  0.25000000  0.06789781  1.0
