# generated using pymatgen
data_TaAlO4
_symmetry_space_group_name_H-M   'P 1'
_cell_length_a   4.50854596
_cell_length_b   11.39143318
_cell_length_c   4.80614211
_cell_angle_alpha   90.00000000
_cell_angle_beta   90.00000000
_cell_angle_gamma   90.00000000
_symmetry_Int_Tables_number   1
_chemical_formula_structural   TaAlO4
_chemical_formula_sum   'Ta4 Al4 O16'
_cell_volume   246.83769129
_cell_formula_units_Z   4
loop_
 _symmetry_equiv_pos_site_id
 _symmetry_equiv_pos_as_xyz
  1  'x, y, z'
loop_
 _atom_site_type_symbol
 _atom_site_label
 _atom_site_symmetry_multiplicity
 _atom_site_fract_x
 _atom_site_fract_y
 _atom_site_fract_z
 _atom_site_occupancy
  Ta  Ta0  1  0.50000000  0.33130186  0.25000000  1.0
  Ta  Ta1  1  0.50000000  0.66869814  0.75000000  1.0
  Ta  Ta2  1  0.00000000  0.83130186  0.25000000  1.0
  Ta  Ta3  1  0.00000000  0.16869814  0.75000000  1.0
  Al  Al4  1  0.50000000  0.06500308  0.25000000  1.0
  Al  Al5  1  0.50000000  0.93499692  0.75000000  1.0
  Al  Al6  1  0.00000000  0.56500308  0.25000000  1.0
  Al  Al7  1  0.00000000  0.43499692  0.75000000  1.0
  O  O8  1  0.27412719  0.18745766  0.08048431  1.0
  O  O9  1  0.27412719  0.81254234  0.58048431  1.0
  O  O10  1  0.77412719  0.68745766  0.41951569  1.0
  O  O11  1  0.77412719  0.31254234  0.91951569  1.0
  O  O12  1  0.72587281  0.18745766  0.41951569  1.0
  O  O13  1  0.72587281  0.81254234  0.91951569  1.0
  O  O14  1  0.22587281  0.68745766  0.08048431  1.0
  O  O15  1  0.22587281  0.31254234  0.58048431  1.0
  O  O16  1  0.23349883  0.44221973  0.07761887  1.0
  O  O17  1  0.23349883  0.55778027  0.57761887  1.0
  O  O18  1  0.73349883  0.94221973  0.42238113  1.0
  O  O19  1  0.73349883  0.05778027  0.92238113  1.0
  O  O20  1  0.76650117  0.44221973  0.42238113  1.0
  O  O21  1  0.76650117  0.55778027  0.92238113  1.0
  O  O22  1  0.26650117  0.94221973  0.07761887  1.0
  O  O23  1  0.26650117  0.05778027  0.57761887  1.0
