# generated using pymatgen
data_Li2Cr2H4O9
_symmetry_space_group_name_H-M   'P 1'
_cell_length_a   7.39208592
_cell_length_b   7.39208592
_cell_length_c   9.28354038
_cell_angle_alpha   86.96196480
_cell_angle_beta   93.03803520
_cell_angle_gamma   118.99762559
_symmetry_Int_Tables_number   1
_chemical_formula_structural   Li2Cr2H4O9
_chemical_formula_sum   'Li4 Cr4 H8 O18'
_cell_volume   442.84701840
_cell_formula_units_Z   2
loop_
 _symmetry_equiv_pos_site_id
 _symmetry_equiv_pos_as_xyz
  1  'x, y, z'
loop_
 _atom_site_type_symbol
 _atom_site_label
 _atom_site_symmetry_multiplicity
 _atom_site_fract_x
 _atom_site_fract_y
 _atom_site_fract_z
 _atom_site_occupancy
  Li  Li0  1  0.48840808  0.25913762  0.94641453  1.0
  Li  Li1  1  0.74086238  0.51159193  0.44641453  1.0
  Li  Li2  1  1.27199165  0.46544880  0.84503293  1.0
  Li  Li3  1  0.53455120  -0.27199165  0.34503293  1.0
  Cr  Cr4  1  0.96367189  0.65927379  0.91753982  1.0
  Cr  Cr5  1  0.34072621  0.03632811  0.41753982  1.0
  Cr  Cr6  1  0.72205687  -0.16704367  0.69315390  1.0
  Cr  Cr7  1  1.16704367  0.27794313  0.19315390  1.0
  H  H8  1  0.37728067  0.25615766  0.66540465  1.0
  H  H9  1  0.74384234  0.62271933  0.16540465  1.0
  H  H10  1  0.19129082  0.10302105  0.76054771  1.0
  H  H11  1  0.89697895  0.80870918  0.26054771  1.0
  H  H12  1  0.89225044  0.29000509  0.53323990  1.0
  H  H13  1  0.70999491  0.10774956  0.03323990  1.0
  H  H14  1  0.55509478  -0.05433452  0.92099619  1.0
  H  H15  1  1.05433452  0.44490522  0.42099619  1.0
  O  O16  1  0.93788824  0.83397293  0.78534432  1.0
  O  O17  1  0.16602707  0.06211176  0.28534432  1.0
  O  O18  1  0.74019581  0.52304600  -0.00451667  1.0
  O  O19  1  0.47695400  0.25980419  0.49548333  1.0
  O  O20  1  0.13330132  -0.20144087  1.03427010  1.0
  O  O21  1  1.20144087  0.86669868  0.53427010  1.0
  O  O22  1  1.03396932  0.51093213  0.84262293  1.0
  O  O23  1  0.48906787  -0.03396932  0.34262293  1.0
  O  O24  1  0.66289551  -0.29715120  0.54475631  1.0
  O  O25  1  1.29715120  0.33710449  0.04475631  1.0
  O  O26  1  0.78659885  0.06995566  0.65551638  1.0
  O  O27  1  0.93004434  0.21340115  0.15551638  1.0
  O  O28  1  0.52624574  -0.26856292  0.80067163  1.0
  O  O29  1  1.26856292  0.47375426  0.30067163  1.0
  O  O30  1  0.31483490  0.24076211  0.76088077  1.0
  O  O31  1  0.75923789  0.68516510  0.26088077  1.0
  O  O32  1  0.58195166  0.06674686  -0.02487541  1.0
  O  O33  1  0.93325314  0.41804834  0.47512459  1.0
