# generated using pymatgen
data_Sm3MoO7
_symmetry_space_group_name_H-M   'P 1'
_cell_length_a   6.61266511
_cell_length_b   6.61266511
_cell_length_c   7.64588204
_cell_angle_alpha   90.00000000
_cell_angle_beta   90.00000000
_cell_angle_gamma   69.27202464
_symmetry_Int_Tables_number   1
_chemical_formula_structural   Sm3MoO7
_chemical_formula_sum   'Sm6 Mo2 O14'
_cell_volume   312.69308255
_cell_formula_units_Z   2
loop_
 _symmetry_equiv_pos_site_id
 _symmetry_equiv_pos_as_xyz
  1  'x, y, z'
loop_
 _atom_site_type_symbol
 _atom_site_label
 _atom_site_symmetry_multiplicity
 _atom_site_fract_x
 _atom_site_fract_y
 _atom_site_fract_z
 _atom_site_occupancy
  Sm  Sm0  1  0.05348010  0.48273699  0.25000000  1.0
  Sm  Sm1  1  -0.51726301  1.05348010  0.75000000  1.0
  Sm  Sm2  1  0.51726301  0.94651990  0.25000000  1.0
  Sm  Sm3  1  -0.05348010  1.51726301  0.75000000  1.0
  Sm  Sm4  1  0.00000000  0.00000000  0.50000000  1.0
  Sm  Sm5  1  0.00000000  0.00000000  0.00000000  1.0
  Mo  Mo6  1  0.50000000  0.50000000  0.50000000  1.0
  Mo  Mo7  1  0.50000000  0.50000000  0.00000000  1.0
  O  O8  1  -0.19239382  1.44045795  0.47148621  1.0
  O  O9  1  -0.19239382  1.44045795  0.02851379  1.0
  O  O10  1  0.44045795  0.80760618  0.97148621  1.0
  O  O11  1  0.44045795  0.80760618  0.52851379  1.0
  O  O12  1  -0.44045795  1.19239382  0.47148621  1.0
  O  O13  1  -0.44045795  1.19239382  0.02851379  1.0
  O  O14  1  0.19239382  0.55954205  0.97148621  1.0
  O  O15  1  0.19239382  0.55954205  0.52851379  1.0
  O  O16  1  -0.11322895  1.84724515  0.25000000  1.0
  O  O17  1  0.84724515  0.88677105  0.75000000  1.0
  O  O18  1  -0.84724515  1.11322895  0.25000000  1.0
  O  O19  1  0.11322895  0.15275485  0.75000000  1.0
  O  O20  1  0.44944645  0.55055355  0.25000000  1.0
  O  O21  1  -0.44944645  1.44944645  0.75000000  1.0
