# generated using pymatgen
data_Zr2(PO4)3
_symmetry_space_group_name_H-M   'P 1'
_cell_length_a   9.31267418
_cell_length_b   9.31267418
_cell_length_c   9.31267418
_cell_angle_alpha   57.89409306
_cell_angle_beta   57.89409306
_cell_angle_gamma   57.89409306
_symmetry_Int_Tables_number   1
_chemical_formula_structural   Zr2(PO4)3
_chemical_formula_sum   'Zr4 P6 O24'
_cell_volume   543.49121681
_cell_formula_units_Z   2
loop_
 _symmetry_equiv_pos_site_id
 _symmetry_equiv_pos_as_xyz
  1  'x, y, z'
loop_
 _atom_site_type_symbol
 _atom_site_label
 _atom_site_symmetry_multiplicity
 _atom_site_fract_x
 _atom_site_fract_y
 _atom_site_fract_z
 _atom_site_occupancy
  Zr  Zr0  1  0.85832323  -0.14167677  -0.14167677  1.0
  Zr  Zr1  1  0.35832323  0.35832323  0.35832323  1.0
  Zr  Zr2  1  0.64167677  0.64167677  -0.35832323  1.0
  Zr  Zr3  1  1.14167677  0.14167677  0.14167677  1.0
  P  P4  1  0.46896717  0.75000000  0.03103283  1.0
  P  P5  1  0.96896717  -0.46896717  0.25000000  1.0
  P  P6  1  0.25000000  0.96896717  -0.46896717  1.0
  P  P7  1  0.75000000  1.03103283  -0.53103283  1.0
  P  P8  1  0.53103283  0.25000000  -0.03103283  1.0
  P  P9  1  1.03103283  0.46896717  -0.25000000  1.0
  O  O10  1  0.69991252  0.08105706  -0.06125396  1.0
  O  O11  1  1.19991252  0.43874604  -0.41894294  1.0
  O  O12  1  0.56125396  0.41894294  -0.19991252  1.0
  O  O13  1  1.06125396  0.30008748  -0.08105706  1.0
  O  O14  1  0.91894294  0.06125396  0.30008748  1.0
  O  O15  1  0.41894294  0.80008748  -0.43874604  1.0
  O  O16  1  1.30008748  -0.08105706  0.06125396  1.0
  O  O17  1  0.80008748  0.56125396  -0.58105706  1.0
  O  O18  1  0.93874604  -0.30008748  0.08105706  1.0
  O  O19  1  0.43874604  0.58105706  0.19991252  1.0
  O  O20  1  0.58105706  1.19991252  -0.56125396  1.0
  O  O21  1  1.08105706  -0.06125396  -0.30008748  1.0
  O  O22  1  0.77277660  1.00214626  -0.36391443  1.0
  O  O23  1  1.27277660  0.13608557  -0.49785374  1.0
  O  O24  1  0.86391443  0.49785374  -0.27277660  1.0
  O  O25  1  0.36391443  0.22722340  -0.00214626  1.0
  O  O26  1  0.99785374  0.36391443  -0.77277660  1.0
  O  O27  1  0.49785374  0.72722340  -0.13608557  1.0
  O  O28  1  0.22722340  0.99785374  -0.63608557  1.0
  O  O29  1  0.72722340  0.86391443  -0.50214626  1.0
  O  O30  1  0.63608557  0.77277660  0.00214626  1.0
  O  O31  1  1.13608557  -0.49785374  0.27277660  1.0
  O  O32  1  0.50214626  0.27277660  0.13608557  1.0
  O  O33  1  1.00214626  0.63608557  -0.22722340  1.0
