# generated using pymatgen
data_CrGa
_symmetry_space_group_name_H-M   'P 1'
_cell_length_a   7.71852052
_cell_length_b   7.71852052
_cell_length_c   7.71852052
_cell_angle_alpha   109.23143357
_cell_angle_beta   109.23143357
_cell_angle_gamma   109.23143357
_symmetry_Int_Tables_number   1
_chemical_formula_structural   CrGa
_chemical_formula_sum   'Cr13 Ga13'
_cell_volume   357.08931090
_cell_formula_units_Z   13
loop_
 _symmetry_equiv_pos_site_id
 _symmetry_equiv_pos_as_xyz
  1  'x, y, z'
loop_
 _atom_site_type_symbol
 _atom_site_label
 _atom_site_symmetry_multiplicity
 _atom_site_fract_x
 _atom_site_fract_y
 _atom_site_fract_z
 _atom_site_occupancy
  Ga  Ga0  1  1.04774389  0.04774389  -0.30573719  1.0
  Ga  Ga1  1  1.04774389  -0.30573719  0.04774389  1.0
  Ga  Ga2  1  1.30573719  0.95225611  -0.04774389  1.0
  Ga  Ga3  1  0.95225611  1.30573719  -0.04774389  1.0
  Ga  Ga4  1  0.95225611  0.95225611  0.30573719  1.0
  Ga  Ga5  1  0.69426281  0.04774389  0.04774389  1.0
  Ga  Ga6  1  0.60996775  1.00000000  -0.60996775  1.0
  Ga  Ga7  1  0.60996775  0.39003225  -0.00000000  1.0
  Ga  Ga8  1  1.00000000  0.60996775  -0.60996775  1.0
  Ga  Ga9  1  1.00000000  0.39003225  -0.39003225  1.0
  Ga  Ga10  1  0.39003225  1.00000000  -0.39003225  1.0
  Ga  Ga11  1  0.39003225  0.60996775  -0.00000000  1.0
  Ga  Ga12  1  0.50000000  0.50000000  0.50000000  1.0
  Cr  Cr13  1  1.29925905  0.29925905  -0.36628561  1.0
  Cr  Cr14  1  1.29925905  -0.36628561  0.29925905  1.0
  Cr  Cr15  1  1.36628561  0.70074095  -0.29925905  1.0
  Cr  Cr16  1  0.70074095  1.36628561  -0.29925905  1.0
  Cr  Cr17  1  0.70074095  0.70074095  0.36628561  1.0
  Cr  Cr18  1  0.63371439  0.29925905  0.29925905  1.0
  Cr  Cr19  1  0.31917240  0.31917240  0.10920055  1.0
  Cr  Cr20  1  0.31917240  1.10920055  -0.68082760  1.0
  Cr  Cr21  1  0.89079945  0.68082760  0.68082760  1.0
  Cr  Cr22  1  1.68082760  -0.10920055  0.68082760  1.0
  Cr  Cr23  1  1.68082760  0.68082760  -0.10920055  1.0
  Cr  Cr24  1  1.10920055  0.31917240  -0.68082760  1.0
  Cr  Cr25  1  0.00000000  0.00000000  0.00000000  1.0
