# generated using pymatgen
data_LiCoPO4
_symmetry_space_group_name_H-M   'P 1'
_cell_length_a   10.42506878
_cell_length_b   6.11648929
_cell_length_c   4.73108275
_cell_angle_alpha   90.00000000
_cell_angle_beta   90.00000000
_cell_angle_gamma   90.00000000
_symmetry_Int_Tables_number   1
_chemical_formula_structural   LiCoPO4
_chemical_formula_sum   'Li4 Co4 P4 O16'
_cell_volume   301.67664759
_cell_formula_units_Z   4
loop_
 _symmetry_equiv_pos_site_id
 _symmetry_equiv_pos_as_xyz
  1  'x, y, z'
loop_
 _atom_site_type_symbol
 _atom_site_label
 _atom_site_symmetry_multiplicity
 _atom_site_fract_x
 _atom_site_fract_y
 _atom_site_fract_z
 _atom_site_occupancy
  O  O0  1  0.65739753  0.45895411  0.20425908  1.0
  O  O1  1  0.65739753  0.04104589  0.20425908  1.0
  O  O2  1  0.15739753  0.45895411  0.29574092  1.0
  O  O3  1  0.15739753  0.04104589  0.29574092  1.0
  O  O4  1  0.34260247  0.95895411  0.79574092  1.0
  O  O5  1  0.34260247  0.54104589  0.79574092  1.0
  O  O6  1  0.84260247  0.95895411  0.70425908  1.0
  O  O7  1  0.84260247  0.54104589  0.70425908  1.0
  O  O8  1  0.95253995  0.25000000  0.28201334  1.0
  O  O9  1  0.45253995  0.25000000  0.21798666  1.0
  O  O10  1  0.04746005  0.75000000  0.71798666  1.0
  O  O11  1  0.54746005  0.75000000  0.78201334  1.0
  O  O12  1  0.58675735  0.25000000  0.75107312  1.0
  O  O13  1  0.08675735  0.25000000  0.74892688  1.0
  O  O14  1  0.41324265  0.75000000  0.24892688  1.0
  O  O15  1  0.91324265  0.75000000  0.25107312  1.0
  Co  Co16  1  0.00000000  0.50000000  0.00000000  1.0
  Co  Co17  1  0.00000000  0.00000000  0.00000000  1.0
  Co  Co18  1  0.50000000  0.50000000  0.50000000  1.0
  Co  Co19  1  0.50000000  0.00000000  0.50000000  1.0
  P  P20  1  0.59334641  0.25000000  0.08241136  1.0
  P  P21  1  0.09334641  0.25000000  0.41758864  1.0
  P  P22  1  0.40665359  0.75000000  0.91758864  1.0
  P  P23  1  0.90665359  0.75000000  0.58241136  1.0
  Li  Li24  1  0.78716302  0.25000000  0.50841544  1.0
  Li  Li25  1  0.28716302  0.25000000  0.99158456  1.0
  Li  Li26  1  0.21283698  0.75000000  0.49158456  1.0
  Li  Li27  1  0.71283698  0.75000000  0.00841544  1.0
