# generated using pymatgen
data_BaSn2S3
_symmetry_space_group_name_H-M   'P 1'
_cell_length_a   6.23522863
_cell_length_b   13.66623661
_cell_length_c   12.08161895
_cell_angle_alpha   90.00000000
_cell_angle_beta   101.27519037
_cell_angle_gamma   90.00000000
_symmetry_Int_Tables_number   1
_chemical_formula_structural   BaSn2S3
_chemical_formula_sum   'Ba6 Sn12 S18'
_cell_volume   1009.63028177
_cell_formula_units_Z   6
loop_
 _symmetry_equiv_pos_site_id
 _symmetry_equiv_pos_as_xyz
  1  'x, y, z'
loop_
 _atom_site_type_symbol
 _atom_site_label
 _atom_site_symmetry_multiplicity
 _atom_site_fract_x
 _atom_site_fract_y
 _atom_site_fract_z
 _atom_site_occupancy
  Ba  Ba0  1  0.79967089  0.42237668  0.12700590  1.0
  Ba  Ba1  1  0.79967089  0.07762332  0.12700590  1.0
  Ba  Ba2  1  0.20032911  0.92237668  0.87299410  1.0
  Ba  Ba3  1  0.20032911  0.57762332  0.87299410  1.0
  Ba  Ba4  1  0.87466907  0.25000000  0.52437081  1.0
  Ba  Ba5  1  0.12533093  0.75000000  0.47562919  1.0
  Sn  Sn6  1  0.77640837  0.94816251  0.55211499  1.0
  Sn  Sn7  1  0.77640837  0.55183749  0.55211499  1.0
  Sn  Sn8  1  0.22359163  0.44816251  0.44788501  1.0
  Sn  Sn9  1  0.22359163  0.05183749  0.44788501  1.0
  Sn  Sn10  1  0.54815545  0.38586421  0.77139644  1.0
  Sn  Sn11  1  0.54815545  0.11413579  0.77139644  1.0
  Sn  Sn12  1  0.45184455  0.88586421  0.22860356  1.0
  Sn  Sn13  1  0.45184455  0.61413579  0.22860356  1.0
  Sn  Sn14  1  0.37951561  0.25000000  0.21038679  1.0
  Sn  Sn15  1  0.62048439  0.75000000  0.78961321  1.0
  Sn  Sn16  1  0.16103822  0.25000000  0.90173265  1.0
  Sn  Sn17  1  0.83896178  0.75000000  0.09826735  1.0
  S  S18  1  0.91561170  0.42029706  0.70903344  1.0
  S  S19  1  0.91561170  0.07970294  0.70903344  1.0
  S  S20  1  0.08438830  0.92029706  0.29096656  1.0
  S  S21  1  0.08438830  0.57970294  0.29096656  1.0
  S  S22  1  0.73664307  0.89360861  0.94788017  1.0
  S  S23  1  0.73664307  0.60639139  0.94788017  1.0
  S  S24  1  0.26335693  0.39360861  0.05211983  1.0
  S  S25  1  0.26335693  0.10639139  0.05211983  1.0
  S  S26  1  0.59413875  0.42932450  0.38578654  1.0
  S  S27  1  0.59413875  0.07067550  0.38578654  1.0
  S  S28  1  0.40586125  0.92932450  0.61421346  1.0
  S  S29  1  0.40586125  0.57067550  0.61421346  1.0
  S  S30  1  0.75418048  0.25000000  0.92985254  1.0
  S  S31  1  0.24581952  0.75000000  0.07014746  1.0
  S  S32  1  0.42586561  0.25000000  0.62036527  1.0
  S  S33  1  0.57413439  0.75000000  0.37963473  1.0
  S  S34  1  0.02961980  0.25000000  0.28102404  1.0
  S  S35  1  0.97038020  0.75000000  0.71897596  1.0
