# generated using pymatgen
data_Mn(FeO2)2
_symmetry_space_group_name_H-M   'P 1'
_cell_length_a   2.84574376
_cell_length_b   9.67551764
_cell_length_c   10.15480006
_cell_angle_alpha   90.00000000
_cell_angle_beta   90.00000000
_cell_angle_gamma   90.00000000
_symmetry_Int_Tables_number   1
_chemical_formula_structural   Mn(FeO2)2
_chemical_formula_sum   'Mn4 Fe8 O16'
_cell_volume   279.60271130
_cell_formula_units_Z   4
loop_
 _symmetry_equiv_pos_site_id
 _symmetry_equiv_pos_as_xyz
  1  'x, y, z'
loop_
 _atom_site_type_symbol
 _atom_site_label
 _atom_site_symmetry_multiplicity
 _atom_site_fract_x
 _atom_site_fract_y
 _atom_site_fract_z
 _atom_site_occupancy
  Mn  Mn0  1  0.25019570  0.87223214  0.75000000  1.0
  Mn  Mn1  1  0.25019570  0.62776786  0.25000000  1.0
  Mn  Mn2  1  0.74980430  0.37223214  0.75000000  1.0
  Mn  Mn3  1  0.74980430  0.12776786  0.25000000  1.0
  Fe  Fe4  1  0.74997463  0.62076021  0.93233223  1.0
  Fe  Fe5  1  0.74997463  0.62076021  0.56766777  1.0
  Fe  Fe6  1  0.74997463  0.87923979  0.43233223  1.0
  Fe  Fe7  1  0.74997463  0.87923979  0.06766777  1.0
  Fe  Fe8  1  0.25002537  0.12076021  0.93233223  1.0
  Fe  Fe9  1  0.25002537  0.12076021  0.56766777  1.0
  Fe  Fe10  1  0.25002537  0.37923979  0.43233223  1.0
  Fe  Fe11  1  0.25002537  0.37923979  0.06766777  1.0
  O  O12  1  0.75000209  0.98050624  0.87857096  1.0
  O  O13  1  0.75000209  0.98050624  0.62142904  1.0
  O  O14  1  0.75000209  0.51949376  0.37857096  1.0
  O  O15  1  0.75000209  0.51949376  0.12142904  1.0
  O  O16  1  0.24999791  0.48050624  0.87857096  1.0
  O  O17  1  0.24999791  0.48050624  0.62142904  1.0
  O  O18  1  0.24999791  0.01949376  0.37857096  1.0
  O  O19  1  0.24999791  0.01949376  0.12142904  1.0
  O  O20  1  0.75019004  0.73482535  0.75000000  1.0
  O  O21  1  0.75019004  0.76517465  0.25000000  1.0
  O  O22  1  0.24980996  0.23482535  0.75000000  1.0
  O  O23  1  0.24980996  0.26517465  0.25000000  1.0
  O  O24  1  0.25000831  0.75000000  0.00000000  1.0
  O  O25  1  0.25000831  0.75000000  0.50000000  1.0
  O  O26  1  0.74999169  0.25000000  0.00000000  1.0
  O  O27  1  0.74999169  0.25000000  0.50000000  1.0
