# generated using pymatgen
data_Nb2Tl4Se11
_symmetry_space_group_name_H-M   'P 1'
_cell_length_a   8.34702151
_cell_length_b   14.07459849
_cell_length_c   9.39070857
_cell_angle_alpha   107.15790721
_cell_angle_beta   94.07393574
_cell_angle_gamma   90.01309081
_symmetry_Int_Tables_number   1
_chemical_formula_structural   Nb2Tl4Se11
_chemical_formula_sum   'Nb4 Tl8 Se22'
_cell_volume   1051.20735864
_cell_formula_units_Z   2
loop_
 _symmetry_equiv_pos_site_id
 _symmetry_equiv_pos_as_xyz
  1  'x, y, z'
loop_
 _atom_site_type_symbol
 _atom_site_label
 _atom_site_symmetry_multiplicity
 _atom_site_fract_x
 _atom_site_fract_y
 _atom_site_fract_z
 _atom_site_occupancy
  Nb  Nb0  1  0.83318313  0.68943088  -0.60913413  1.0
  Nb  Nb1  1  0.16681687  0.31056912  -0.39086587  1.0
  Nb  Nb2  1  0.62822920  0.80741366  -0.86117870  1.0
  Nb  Nb3  1  0.37177080  0.19258634  -0.13882130  1.0
  Tl  Tl4  1  -0.00277039  0.39873229  -0.76438599  1.0
  Tl  Tl5  1  1.00277039  0.60126771  -0.23561401  1.0
  Tl  Tl6  1  0.72578961  0.08408954  -0.92050050  1.0
  Tl  Tl7  1  0.27421039  0.91591046  -0.07949950  1.0
  Tl  Tl8  1  0.45383215  0.51843363  -0.73948672  1.0
  Tl  Tl9  1  0.54616785  0.48156637  -0.26051328  1.0
  Tl  Tl10  1  0.28894407  0.92223838  -0.52453898  1.0
  Tl  Tl11  1  0.71105593  0.07776162  -0.47546102  1.0
  Se  Se12  1  0.96149827  0.37627567  -0.19447375  1.0
  Se  Se13  1  0.03850173  0.62372433  -0.80552625  1.0
  Se  Se14  1  0.89790057  0.86009057  -0.93317842  1.0
  Se  Se15  1  0.10209943  0.13990943  -0.06682158  1.0
  Se  Se16  1  0.88620927  0.87525101  -0.67269592  1.0
  Se  Se17  1  0.11379073  0.12474899  -0.32730408  1.0
  Se  Se18  1  0.91423462  0.24702724  -0.58144409  1.0
  Se  Se19  1  0.08576538  0.75297276  -0.41855591  1.0
  Se  Se20  1  0.83628243  0.83386383  -0.36445142  1.0
  Se  Se21  1  0.16371757  0.16613617  -0.63554858  1.0
  Se  Se22  1  0.76392615  0.61494565  -0.90027363  1.0
  Se  Se23  1  0.23607385  0.38505435  -0.09972637  1.0
  Se  Se24  1  0.76799977  0.54101842  -0.53598328  1.0
  Se  Se25  1  0.23200023  0.45898158  -0.46401672  1.0
  Se  Se26  1  0.53358568  0.74849221  -0.63247420  1.0
  Se  Se27  1  0.46641432  0.25150779  -0.36752580  1.0
  Se  Se28  1  0.48695547  0.96652971  -0.78283316  1.0
  Se  Se29  1  0.51304453  0.03347029  -0.21716684  1.0
  Se  Se30  1  0.43880338  0.24695107  -0.85081373  1.0
  Se  Se31  1  0.56119662  0.75304893  -0.14918627  1.0
  Se  Se32  1  0.39787723  0.68466054  -0.00152334  1.0
  Se  Se33  1  0.60212277  0.31533946  -0.99847666  1.0
