# generated using pymatgen
data_Mo3NO9
_symmetry_space_group_name_H-M   'P 1'
_cell_length_a   11.52734318
_cell_length_b   11.52734318
_cell_length_c   3.51214516
_cell_angle_alpha   90.00000000
_cell_angle_beta   90.00000000
_cell_angle_gamma   120.00000000
_symmetry_Int_Tables_number   1
_chemical_formula_structural   Mo3NO9
_chemical_formula_sum   'Mo6 N2 O18'
_cell_volume   404.16763652
_cell_formula_units_Z   2
loop_
 _symmetry_equiv_pos_site_id
 _symmetry_equiv_pos_as_xyz
  1  'x, y, z'
loop_
 _atom_site_type_symbol
 _atom_site_label
 _atom_site_symmetry_multiplicity
 _atom_site_fract_x
 _atom_site_fract_y
 _atom_site_fract_z
 _atom_site_occupancy
  Mo  Mo0  1  0.35090407  0.88246804  0.25000000  1.0
  Mo  Mo1  1  0.88246804  0.53156397  0.75000000  1.0
  Mo  Mo2  1  0.53156397  0.64909593  0.25000000  1.0
  Mo  Mo3  1  0.11753196  0.46843603  0.25000000  1.0
  Mo  Mo4  1  0.64909593  0.11753196  0.75000000  1.0
  Mo  Mo5  1  0.46843603  0.35090407  0.75000000  1.0
  N  N6  1  0.00000000  0.00000000  0.50000000  1.0
  N  N7  1  0.00000000  0.00000000  0.00000000  1.0
  O  O8  1  0.22291507  0.71793727  0.25000000  1.0
  O  O9  1  0.71793727  0.49502220  0.75000000  1.0
  O  O10  1  0.49502220  0.77708493  0.25000000  1.0
  O  O11  1  0.28206273  0.50497780  0.25000000  1.0
  O  O12  1  0.77708493  0.28206273  0.75000000  1.0
  O  O13  1  0.50497780  0.22291507  0.75000000  1.0
  O  O14  1  0.27052730  -0.02925969  0.25000000  1.0
  O  O15  1  -0.02925969  0.70021301  0.75000000  1.0
  O  O16  1  0.70021301  0.72947270  0.25000000  1.0
  O  O17  1  1.02925969  0.29978699  0.25000000  1.0
  O  O18  1  0.72947270  1.02925969  0.75000000  1.0
  O  O19  1  0.29978699  0.27052730  0.75000000  1.0
  O  O20  1  0.51246075  0.42846357  0.25000000  1.0
  O  O21  1  0.42846357  0.91600283  0.75000000  1.0
  O  O22  1  0.91600283  0.48753925  0.25000000  1.0
  O  O23  1  0.57153643  0.08399717  0.25000000  1.0
  O  O24  1  0.48753925  0.57153643  0.75000000  1.0
  O  O25  1  0.08399717  0.51246075  0.75000000  1.0
