# generated using pymatgen
data_Tl3AsSe4
_symmetry_space_group_name_H-M   'P 1'
_cell_length_a   9.36463115
_cell_length_b   11.33228364
_cell_length_c   9.75382811
_cell_angle_alpha   90.00000000
_cell_angle_beta   90.00000000
_cell_angle_gamma   90.00000000
_symmetry_Int_Tables_number   1
_chemical_formula_structural   Tl3AsSe4
_chemical_formula_sum   'Tl12 As4 Se16'
_cell_volume   1035.10214807
_cell_formula_units_Z   4
loop_
 _symmetry_equiv_pos_site_id
 _symmetry_equiv_pos_as_xyz
  1  'x, y, z'
loop_
 _atom_site_type_symbol
 _atom_site_label
 _atom_site_symmetry_multiplicity
 _atom_site_fract_x
 _atom_site_fract_y
 _atom_site_fract_z
 _atom_site_occupancy
  Tl  Tl0  1  0.42587209  0.94477014  0.81218199  1.0
  Tl  Tl1  1  0.42587209  0.55522986  0.81218199  1.0
  Tl  Tl2  1  0.92587209  0.94477014  0.68781801  1.0
  Tl  Tl3  1  0.92587209  0.55522986  0.68781801  1.0
  Tl  Tl4  1  0.57412791  0.44477014  0.18781801  1.0
  Tl  Tl5  1  0.57412791  0.05522986  0.18781801  1.0
  Tl  Tl6  1  0.07412791  0.44477014  0.31218199  1.0
  Tl  Tl7  1  0.07412791  0.05522986  0.31218199  1.0
  Tl  Tl8  1  0.39218366  0.25000000  0.61011488  1.0
  Tl  Tl9  1  0.89218366  0.25000000  0.88988512  1.0
  Tl  Tl10  1  0.60781634  0.75000000  0.38988512  1.0
  Tl  Tl11  1  0.10781634  0.75000000  0.11011488  1.0
  As  As12  1  0.27607349  0.25000000  0.02736511  1.0
  As  As13  1  0.77607349  0.25000000  0.47263489  1.0
  As  As14  1  0.72392651  0.75000000  0.97263489  1.0
  As  As15  1  0.22392651  0.75000000  0.52736511  1.0
  Se  Se16  1  0.31809956  0.25000000  0.26813922  1.0
  Se  Se17  1  0.81809956  0.25000000  0.23186078  1.0
  Se  Se18  1  0.68190044  0.75000000  0.73186078  1.0
  Se  Se19  1  0.18190044  0.75000000  0.76813922  1.0
  Se  Se20  1  0.14276843  0.42139425  0.97158377  1.0
  Se  Se21  1  0.14276843  0.07860575  0.97158377  1.0
  Se  Se22  1  0.64276843  0.42139425  0.52841623  1.0
  Se  Se23  1  0.64276843  0.07860575  0.52841623  1.0
  Se  Se24  1  0.85723157  0.92139425  0.02841623  1.0
  Se  Se25  1  0.85723157  0.57860575  0.02841623  1.0
  Se  Se26  1  0.35723157  0.92139425  0.47158377  1.0
  Se  Se27  1  0.35723157  0.57860575  0.47158377  1.0
  Se  Se28  1  0.50417642  0.25000000  0.92287996  1.0
  Se  Se29  1  1.00417642  0.25000000  0.57712004  1.0
  Se  Se30  1  0.49582358  0.75000000  0.07712004  1.0
  Se  Se31  1  -0.00417642  0.75000000  0.42287996  1.0
