# generated using pymatgen
data_Sr2SnSe3F2
_symmetry_space_group_name_H-M   'P 1'
_cell_length_a   6.19416010
_cell_length_b   19.72525387
_cell_length_c   6.18493376
_cell_angle_alpha   90.00000000
_cell_angle_beta   90.00000000
_cell_angle_gamma   90.00000000
_symmetry_Int_Tables_number   1
_chemical_formula_structural   Sr2SnSe3F2
_chemical_formula_sum   'Sr8 Sn4 Se12 F8'
_cell_volume   755.68374533
_cell_formula_units_Z   4
loop_
 _symmetry_equiv_pos_site_id
 _symmetry_equiv_pos_as_xyz
  1  'x, y, z'
loop_
 _atom_site_type_symbol
 _atom_site_label
 _atom_site_symmetry_multiplicity
 _atom_site_fract_x
 _atom_site_fract_y
 _atom_site_fract_z
 _atom_site_occupancy
  Sr  Sr0  1  0.24558794  0.93069061  0.50466718  1.0
  Sr  Sr1  1  0.24558794  0.56930939  0.50466718  1.0
  Sr  Sr2  1  0.74558794  0.93069061  0.99533282  1.0
  Sr  Sr3  1  0.74558794  0.56930939  0.99533282  1.0
  Sr  Sr4  1  0.75441206  0.43069061  0.49533282  1.0
  Sr  Sr5  1  0.75441206  0.06930939  0.49533282  1.0
  Sr  Sr6  1  0.25441206  0.43069061  0.00466718  1.0
  Sr  Sr7  1  0.25441206  0.06930939  0.00466718  1.0
  Sn  Sn8  1  0.35411493  0.75000000  0.91933931  1.0
  Sn  Sn9  1  0.85411493  0.75000000  0.58066069  1.0
  Sn  Sn10  1  0.64588507  0.25000000  0.08066069  1.0
  Sn  Sn11  1  0.14588507  0.25000000  0.41933931  1.0
  Se  Se12  1  0.24241049  0.86954953  0.01217757  1.0
  Se  Se13  1  0.24241049  0.63045047  0.01217757  1.0
  Se  Se14  1  0.74241049  0.86954953  0.48782243  1.0
  Se  Se15  1  0.74241049  0.63045047  0.48782243  1.0
  Se  Se16  1  0.75758951  0.36954953  0.98782243  1.0
  Se  Se17  1  0.75758951  0.13045047  0.98782243  1.0
  Se  Se18  1  0.25758951  0.36954953  0.51217757  1.0
  Se  Se19  1  0.25758951  0.13045047  0.51217757  1.0
  Se  Se20  1  0.26668697  0.75000000  0.50644410  1.0
  Se  Se21  1  0.76668697  0.75000000  0.99355590  1.0
  Se  Se22  1  0.73331303  0.25000000  0.49355590  1.0
  Se  Se23  1  0.23331303  0.25000000  0.00644410  1.0
  F  F24  1  0.49836606  0.49928052  0.74666954  1.0
  F  F25  1  0.49836606  0.00071948  0.74666954  1.0
  F  F26  1  0.99836606  0.49928052  0.75333046  1.0
  F  F27  1  0.99836606  0.00071948  0.75333046  1.0
  F  F28  1  0.50163394  0.99928052  0.25333046  1.0
  F  F29  1  0.50163394  0.50071948  0.25333046  1.0
  F  F30  1  0.00163394  0.99928052  0.24666954  1.0
  F  F31  1  0.00163394  0.50071948  0.24666954  1.0
