# generated using pymatgen
data_NbCoB2
_symmetry_space_group_name_H-M   'P 1'
_cell_length_a   5.95022755
_cell_length_b   3.15404456
_cell_length_c   8.17142512
_cell_angle_alpha   90.00000000
_cell_angle_beta   90.00000000
_cell_angle_gamma   90.00000000
_symmetry_Int_Tables_number   1
_chemical_formula_structural   NbCoB2
_chemical_formula_sum   'Nb4 Co4 B8'
_cell_volume   153.35544635
_cell_formula_units_Z   4
loop_
 _symmetry_equiv_pos_site_id
 _symmetry_equiv_pos_as_xyz
  1  'x, y, z'
loop_
 _atom_site_type_symbol
 _atom_site_label
 _atom_site_symmetry_multiplicity
 _atom_site_fract_x
 _atom_site_fract_y
 _atom_site_fract_z
 _atom_site_occupancy
  Nb  Nb0  1  0.63600018  0.75000000  0.86777111  1.0
  Nb  Nb1  1  0.13600018  0.75000000  0.63222889  1.0
  Nb  Nb2  1  0.36399982  0.25000000  0.13222889  1.0
  Nb  Nb3  1  0.86399982  0.25000000  0.36777111  1.0
  Co  Co4  1  0.99146192  0.75000000  0.11314909  1.0
  Co  Co5  1  0.49146192  0.75000000  0.38685091  1.0
  Co  Co6  1  0.00853808  0.25000000  0.88685091  1.0
  Co  Co7  1  0.50853808  0.25000000  0.61314909  1.0
  B  B8  1  0.73250767  0.75000000  0.57687609  1.0
  B  B9  1  0.23250767  0.75000000  0.92312391  1.0
  B  B10  1  0.26749233  0.25000000  0.42312391  1.0
  B  B11  1  0.76749233  0.25000000  0.07687609  1.0
  B  B12  1  0.66533497  0.75000000  0.17064684  1.0
  B  B13  1  0.16533497  0.75000000  0.32935316  1.0
  B  B14  1  0.33466503  0.25000000  0.82935316  1.0
  B  B15  1  0.83466503  0.25000000  0.67064684  1.0
