# generated using pymatgen
data_Cs6AlSb3
_symmetry_space_group_name_H-M   'P 1'
_cell_length_a   11.16273751
_cell_length_b   6.59187961
_cell_length_c   12.92364827
_cell_angle_alpha   90.00000000
_cell_angle_beta   101.25565763
_cell_angle_gamma   90.00000000
_symmetry_Int_Tables_number   1
_chemical_formula_structural   Cs6AlSb3
_chemical_formula_sum   'Cs12 Al2 Sb6'
_cell_volume   932.67538721
_cell_formula_units_Z   2
loop_
 _symmetry_equiv_pos_site_id
 _symmetry_equiv_pos_as_xyz
  1  'x, y, z'
loop_
 _atom_site_type_symbol
 _atom_site_label
 _atom_site_symmetry_multiplicity
 _atom_site_fract_x
 _atom_site_fract_y
 _atom_site_fract_z
 _atom_site_occupancy
  Cs  Cs0  1  0.90972130  0.25000000  0.63343052  1.0
  Cs  Cs1  1  0.09027870  0.75000000  0.36656948  1.0
  Cs  Cs2  1  0.87820330  0.25000000  0.32300607  1.0
  Cs  Cs3  1  0.12179670  0.75000000  0.67699393  1.0
  Cs  Cs4  1  0.86454713  0.25000000  0.97878820  1.0
  Cs  Cs5  1  0.13545287  0.75000000  0.02121180  1.0
  Cs  Cs6  1  0.55895198  0.25000000  0.45232369  1.0
  Cs  Cs7  1  0.44104802  0.75000000  0.54767631  1.0
  Cs  Cs8  1  0.54297493  0.25000000  0.07804798  1.0
  Cs  Cs9  1  0.45702507  0.75000000  0.92195202  1.0
  Cs  Cs10  1  0.25624659  0.25000000  0.22307512  1.0
  Cs  Cs11  1  0.74375341  0.75000000  0.77692488  1.0
  Al  Al12  1  0.32328635  0.25000000  0.72086286  1.0
  Al  Al13  1  0.67671365  0.75000000  0.27913714  1.0
  Sb  Sb14  1  0.56528199  0.25000000  0.76809938  1.0
  Sb  Sb15  1  0.43471801  0.75000000  0.23190062  1.0
  Sb  Sb16  1  0.21314835  0.25000000  0.51841931  1.0
  Sb  Sb17  1  0.78685165  0.75000000  0.48158069  1.0
  Sb  Sb18  1  0.19051153  0.25000000  0.87500346  1.0
  Sb  Sb19  1  0.80948847  0.75000000  0.12499654  1.0
