# generated using pymatgen
data_SbS(BrF2)3
_symmetry_space_group_name_H-M   'P 1'
_cell_length_a   8.65072055
_cell_length_b   9.89508057
_cell_length_c   12.88704337
_cell_angle_alpha   90.00000000
_cell_angle_beta   90.00000000
_cell_angle_gamma   90.00000000
_symmetry_Int_Tables_number   1
_chemical_formula_structural   SbS(BrF2)3
_chemical_formula_sum   'Sb4 S4 Br12 F24'
_cell_volume   1103.12545904
_cell_formula_units_Z   4
loop_
 _symmetry_equiv_pos_site_id
 _symmetry_equiv_pos_as_xyz
  1  'x, y, z'
loop_
 _atom_site_type_symbol
 _atom_site_label
 _atom_site_symmetry_multiplicity
 _atom_site_fract_x
 _atom_site_fract_y
 _atom_site_fract_z
 _atom_site_occupancy
  Sb  Sb0  1  0.20099379  0.95351737  0.70512049  1.0
  Sb  Sb1  1  0.70099379  0.54648263  0.29487951  1.0
  Sb  Sb2  1  0.79900621  0.45351737  0.79487951  1.0
  Sb  Sb3  1  0.29900621  0.04648263  0.20512049  1.0
  S  S4  1  0.16436918  0.52399309  0.51335862  1.0
  S  S5  1  0.66436918  0.97600691  0.48664138  1.0
  S  S6  1  0.83563082  0.02399309  0.98664138  1.0
  S  S7  1  0.33563082  0.47600691  0.01335862  1.0
  Br  Br8  1  0.36983147  0.49285159  0.61038693  1.0
  Br  Br9  1  0.86983147  1.00714841  0.38961307  1.0
  Br  Br10  1  0.63016853  -0.00714841  0.88961307  1.0
  Br  Br11  1  0.13016853  0.50714841  0.11038693  1.0
  Br  Br12  1  0.34065822  0.65974043  0.91834393  1.0
  Br  Br13  1  0.84065822  0.84025957  0.08165607  1.0
  Br  Br14  1  0.65934178  0.15974043  0.58165607  1.0
  Br  Br15  1  0.15934178  0.34025957  0.41834393  1.0
  Br  Br16  1  0.72368784  0.81567326  0.59679428  1.0
  Br  Br17  1  0.22368784  0.68432674  0.40320572  1.0
  Br  Br18  1  0.27631216  0.31567326  0.90320572  1.0
  Br  Br19  1  0.77631216  0.18432674  0.09679428  1.0
  F  F20  1  0.45635481  0.96539848  0.12110902  1.0
  F  F21  1  0.95635481  0.53460152  0.87889098  1.0
  F  F22  1  0.54364519  0.46539848  0.37889098  1.0
  F  F23  1  0.04364519  0.03460152  0.62110902  1.0
  F  F24  1  0.36526132  0.87560246  0.79145562  1.0
  F  F25  1  0.86526132  0.62439754  0.20854438  1.0
  F  F26  1  0.63473868  0.37560246  0.70854438  1.0
  F  F27  1  0.13473868  0.12439754  0.29145562  1.0
  F  F28  1  0.34536169  0.95895436  0.59135382  1.0
  F  F29  1  0.84536169  0.54104564  0.40864618  1.0
  F  F30  1  0.65463831  0.45895436  0.90864618  1.0
  F  F31  1  0.15463831  0.04104564  0.09135382  1.0
  F  F32  1  0.22727813  0.87002155  0.24968203  1.0
  F  F33  1  0.72727813  0.62997845  0.75031797  1.0
  F  F34  1  0.77272187  0.37002155  0.25031797  1.0
  F  F35  1  0.27272187  0.12997845  0.74968203  1.0
  F  F36  1  0.13937269  0.77433200  0.66401743  1.0
  F  F37  1  0.63937269  0.72566800  0.33598257  1.0
  F  F38  1  0.86062731  0.27433200  0.83598257  1.0
  F  F39  1  0.36062731  0.22566800  0.16401743  1.0
  F  F40  1  0.06443252  0.94478386  0.82261651  1.0
  F  F41  1  0.56443252  0.55521614  0.17738349  1.0
  F  F42  1  0.93556748  0.44478386  0.67738349  1.0
  F  F43  1  0.43556748  0.05521614  0.32261651  1.0
