# generated using pymatgen
data_BaZn2As2H2O9
_symmetry_space_group_name_H-M   'P 1'
_cell_length_a   5.42204809
_cell_length_b   10.58876158
_cell_length_c   8.18816665
_cell_angle_alpha   90.00000000
_cell_angle_beta   95.58798256
_cell_angle_gamma   90.00000000
_symmetry_Int_Tables_number   1
_chemical_formula_structural   BaZn2As2H2O9
_chemical_formula_sum   'Ba2 Zn4 As4 H4 O18'
_cell_volume   467.87135207
_cell_formula_units_Z   2
loop_
 _symmetry_equiv_pos_site_id
 _symmetry_equiv_pos_as_xyz
  1  'x, y, z'
loop_
 _atom_site_type_symbol
 _atom_site_label
 _atom_site_symmetry_multiplicity
 _atom_site_fract_x
 _atom_site_fract_y
 _atom_site_fract_z
 _atom_site_occupancy
  Ba  Ba0  1  0.55924584  0.15648342  0.29970008  1.0
  Ba  Ba1  1  0.44075416  0.65648342  0.70029992  1.0
  Zn  Zn2  1  0.94783919  0.58072040  0.39101198  1.0
  Zn  Zn3  1  0.05216081  0.08072040  0.60898802  1.0
  Zn  Zn4  1  0.47369291  0.31668923  0.90393789  1.0
  Zn  Zn5  1  0.52630710  0.81668923  0.09606211  1.0
  As  As6  1  0.92900446  0.36797649  0.69047920  1.0
  As  As7  1  0.07099554  0.86797649  0.30952080  1.0
  As  As8  1  0.57825844  0.02615792  0.80806434  1.0
  As  As9  1  0.42174156  0.52615792  0.19193566  1.0
  H  H10  1  0.96921725  0.73614741  0.93486943  1.0
  H  H11  1  0.03078275  0.23614741  0.06513057  1.0
  H  H12  1  0.94140118  0.82969426  0.79224564  1.0
  H  H13  1  0.05859882  0.32969426  0.20775436  1.0
  O  O14  1  0.95055831  0.73709566  0.81403009  1.0
  O  O15  1  0.04944169  0.23709566  0.18596991  1.0
  O  O16  1  0.93793180  -0.00179091  0.39367121  1.0
  O  O17  1  0.06206820  0.49820909  0.60632879  1.0
  O  O18  1  0.89228544  0.24614733  0.54699376  1.0
  O  O19  1  0.10771456  0.74614733  0.45300624  1.0
  O  O20  1  0.88187535  -0.00710810  0.77293868  1.0
  O  O21  1  0.11812465  0.49289190  0.22706132  1.0
  O  O22  1  0.63887625  0.41459602  0.74466085  1.0
  O  O23  1  0.36112375  0.91459602  0.25533915  1.0
  O  O24  1  0.56989036  0.13963934  0.96159386  1.0
  O  O25  1  0.43010964  0.63963934  0.03840614  1.0
  O  O26  1  0.45005575  0.88561386  0.86862663  1.0
  O  O27  1  0.54994425  0.38561386  0.13137337  1.0
  O  O28  1  0.41392746  0.08010439  0.62707470  1.0
  O  O29  1  0.58607254  0.58010439  0.37292530  1.0
  O  O30  1  0.11061334  0.31383329  0.86142429  1.0
  O  O31  1  0.88938666  0.81383329  0.13857571  1.0
