# generated using pymatgen
data_Sb3Pd8
_symmetry_space_group_name_H-M   'P 1'
_cell_length_a   15.18934345
_cell_length_b   15.18934345
_cell_length_c   15.18934345
_cell_angle_alpha   29.47005911
_cell_angle_beta   29.47005911
_cell_angle_gamma   29.47005911
_symmetry_Int_Tables_number   1
_chemical_formula_structural   Sb3Pd8
_chemical_formula_sum   'Sb12 Pd32'
_cell_volume   750.72414826
_cell_formula_units_Z   4
loop_
 _symmetry_equiv_pos_site_id
 _symmetry_equiv_pos_as_xyz
  1  'x, y, z'
loop_
 _atom_site_type_symbol
 _atom_site_label
 _atom_site_symmetry_multiplicity
 _atom_site_fract_x
 _atom_site_fract_y
 _atom_site_fract_z
 _atom_site_occupancy
  Sb  Sb0  1  0.43218110  0.75000000  0.06781890  1.0
  Sb  Sb1  1  0.93218110  -0.43218110  0.25000000  1.0
  Sb  Sb2  1  0.25000000  0.93218110  -0.43218110  1.0
  Sb  Sb3  1  0.75000000  1.06781890  -0.56781890  1.0
  Sb  Sb4  1  0.56781890  0.25000000  -0.06781890  1.0
  Sb  Sb5  1  1.06781890  0.43218110  -0.25000000  1.0
  Sb  Sb6  1  0.84303535  -0.15696465  -0.15696465  1.0
  Sb  Sb7  1  0.34303535  0.34303535  0.34303535  1.0
  Sb  Sb8  1  0.65696465  0.65696465  -0.34303535  1.0
  Sb  Sb9  1  1.15696465  0.15696465  0.15696465  1.0
  Sb  Sb10  1  1.00000000  0.00000000  0.00000000  1.0
  Sb  Sb11  1  0.50000000  0.50000000  0.50000000  1.0
  Pd  Pd12  1  0.88253591  0.14806581  -0.37484533  1.0
  Pd  Pd13  1  1.38253591  0.12515467  -0.35193419  1.0
  Pd  Pd14  1  0.87484533  0.35193419  -0.38253591  1.0
  Pd  Pd15  1  1.37484533  0.11746409  -0.14806581  1.0
  Pd  Pd16  1  0.85193419  0.37484533  0.11746409  1.0
  Pd  Pd17  1  0.35193419  0.61746409  -0.12515467  1.0
  Pd  Pd18  1  1.11746409  -0.14806581  0.37484533  1.0
  Pd  Pd19  1  0.61746409  0.87484533  -0.64806581  1.0
  Pd  Pd20  1  0.62515467  -0.11746409  0.14806581  1.0
  Pd  Pd21  1  1.12515467  -0.35193419  0.38253591  1.0
  Pd  Pd22  1  0.64806581  0.38253591  0.12515467  1.0
  Pd  Pd23  1  1.14806581  -0.37484533  -0.11746409  1.0
  Pd  Pd24  1  0.79238506  1.14263251  -0.48739530  1.0
  Pd  Pd25  1  1.29238506  0.01260470  -0.35736749  1.0
  Pd  Pd26  1  0.98739530  0.35736749  -0.29238506  1.0
  Pd  Pd27  1  0.48739530  0.20761494  -0.14263251  1.0
  Pd  Pd28  1  0.85736749  0.48739530  -0.79238506  1.0
  Pd  Pd29  1  0.35736749  0.70761494  -0.01260470  1.0
  Pd  Pd30  1  0.20761494  0.85736749  -0.51260470  1.0
  Pd  Pd31  1  0.70761494  0.98739530  -0.64263251  1.0
  Pd  Pd32  1  0.51260470  0.79238506  0.14263251  1.0
  Pd  Pd33  1  1.01260470  -0.35736749  0.29238506  1.0
  Pd  Pd34  1  0.64263251  0.29238506  0.01260470  1.0
  Pd  Pd35  1  1.14263251  0.51260470  -0.20761494  1.0
  Pd  Pd36  1  0.93808560  -0.06191440  -0.06191440  1.0
  Pd  Pd37  1  0.43808560  0.43808560  0.43808560  1.0
  Pd  Pd38  1  0.56191440  0.56191440  -0.43808560  1.0
  Pd  Pd39  1  1.06191440  0.06191440  0.06191440  1.0
  Pd  Pd40  1  0.78177616  0.78177616  -0.21822384  1.0
  Pd  Pd41  1  0.28177616  0.28177616  0.28177616  1.0
  Pd  Pd42  1  0.71822384  0.71822384  -0.28177616  1.0
  Pd  Pd43  1  0.21822384  0.21822384  0.21822384  1.0
