# generated using pymatgen
data_Tl3(FeS2)2
_symmetry_space_group_name_H-M   'P 1'
_cell_length_a   7.45246458
_cell_length_b   10.63736196
_cell_length_c   11.42730304
_cell_angle_alpha   90.00000000
_cell_angle_beta   90.00000000
_cell_angle_gamma   90.00000000
_symmetry_Int_Tables_number   1
_chemical_formula_structural   Tl3(FeS2)2
_chemical_formula_sum   'Tl12 Fe8 S16'
_cell_volume   905.89445789
_cell_formula_units_Z   4
loop_
 _symmetry_equiv_pos_site_id
 _symmetry_equiv_pos_as_xyz
  1  'x, y, z'
loop_
 _atom_site_type_symbol
 _atom_site_label
 _atom_site_symmetry_multiplicity
 _atom_site_fract_x
 _atom_site_fract_y
 _atom_site_fract_z
 _atom_site_occupancy
  Tl  Tl0  1  0.45566585  0.92439028  0.64122939  1.0
  Tl  Tl1  1  0.45566585  0.57560972  0.64122939  1.0
  Tl  Tl2  1  0.95566585  0.92439028  0.85877061  1.0
  Tl  Tl3  1  0.95566585  0.57560972  0.85877061  1.0
  Tl  Tl4  1  0.54433415  0.42439028  0.35877061  1.0
  Tl  Tl5  1  0.54433415  0.07560972  0.35877061  1.0
  Tl  Tl6  1  0.04433415  0.42439028  0.14122939  1.0
  Tl  Tl7  1  0.04433415  0.07560972  0.14122939  1.0
  Tl  Tl8  1  0.40353626  0.75000000  0.27185615  1.0
  Tl  Tl9  1  0.90353626  0.75000000  0.22814385  1.0
  Tl  Tl10  1  0.59646374  0.25000000  0.72814385  1.0
  Tl  Tl11  1  0.09646374  0.25000000  0.77185615  1.0
  Fe  Fe12  1  0.46313917  0.87230666  0.96874588  1.0
  Fe  Fe13  1  0.46313917  0.62769334  0.96874588  1.0
  Fe  Fe14  1  0.96313917  0.87230666  0.53125412  1.0
  Fe  Fe15  1  0.96313917  0.62769334  0.53125412  1.0
  Fe  Fe16  1  0.53686083  0.37230666  0.03125412  1.0
  Fe  Fe17  1  0.53686083  0.12769334  0.03125412  1.0
  Fe  Fe18  1  0.03686083  0.37230666  0.46874588  1.0
  Fe  Fe19  1  0.03686083  0.12769334  0.46874588  1.0
  S  S20  1  0.36692640  0.44899191  0.88252684  1.0
  S  S21  1  0.36692640  0.05100809  0.88252684  1.0
  S  S22  1  0.86692640  0.44899191  0.61747316  1.0
  S  S23  1  0.86692640  0.05100809  0.61747316  1.0
  S  S24  1  0.63307360  0.94899191  0.11747316  1.0
  S  S25  1  0.63307360  0.55100809  0.11747316  1.0
  S  S26  1  0.13307360  0.94899191  0.38252684  1.0
  S  S27  1  0.13307360  0.55100809  0.38252684  1.0
  S  S28  1  0.22939633  0.75000000  0.02698514  1.0
  S  S29  1  0.72939633  0.75000000  0.47301486  1.0
  S  S30  1  0.77060367  0.25000000  0.97301486  1.0
  S  S31  1  0.27060367  0.25000000  0.52698514  1.0
  S  S32  1  0.11400939  0.75000000  0.66272172  1.0
  S  S33  1  0.61400939  0.75000000  0.83727828  1.0
  S  S34  1  0.88599061  0.25000000  0.33727828  1.0
  S  S35  1  0.38599061  0.25000000  0.16272172  1.0
