# generated using pymatgen
data_Y5(SiSb)2
_symmetry_space_group_name_H-M   'P 1'
_cell_length_a   8.52595091
_cell_length_b   8.52595091
_cell_length_c   7.86974114
_cell_angle_alpha   90.00000000
_cell_angle_beta   90.00000000
_cell_angle_gamma   54.82674270
_symmetry_Int_Tables_number   1
_chemical_formula_structural   Y5(SiSb)2
_chemical_formula_sum   'Y10 Si4 Sb4'
_cell_volume   467.61463969
_cell_formula_units_Z   2
loop_
 _symmetry_equiv_pos_site_id
 _symmetry_equiv_pos_as_xyz
  1  'x, y, z'
loop_
 _atom_site_type_symbol
 _atom_site_label
 _atom_site_symmetry_multiplicity
 _atom_site_fract_x
 _atom_site_fract_y
 _atom_site_fract_z
 _atom_site_occupancy
  Y  Y0  1  0.04055711  0.70691829  0.66649339  1.0
  Y  Y1  1  -0.45944289  1.20691829  0.83350661  1.0
  Y  Y2  1  -0.29308171  1.04055711  0.33350661  1.0
  Y  Y3  1  0.20691829  0.54055711  0.16649339  1.0
  Y  Y4  1  -0.70691829  0.95944289  0.66649339  1.0
  Y  Y5  1  -0.20691829  0.45944289  0.83350661  1.0
  Y  Y6  1  -0.04055711  0.29308171  0.33350661  1.0
  Y  Y7  1  -0.54055711  0.79308171  0.16649339  1.0
  Y  Y8  1  0.00000000  0.00000000  0.00000000  1.0
  Y  Y9  1  -0.50000000  0.50000000  0.50000000  1.0
  Si  Si10  1  -0.63094946  0.63094946  0.86990985  1.0
  Si  Si11  1  -0.13094946  0.13094946  0.63009015  1.0
  Si  Si12  1  -0.36905054  0.36905054  0.13009015  1.0
  Si  Si13  1  -0.86905054  0.86905054  0.36990985  1.0
  Sb  Sb14  1  -0.20567477  0.79432523  0.00000000  1.0
  Sb  Sb15  1  0.29432523  0.29432523  0.50000000  1.0
  Sb  Sb16  1  0.20567477  0.20567477  0.00000000  1.0
  Sb  Sb17  1  -0.29432523  0.70567477  0.50000000  1.0
