# generated using pymatgen
data_K2Ge2Pb2O7
_symmetry_space_group_name_H-M   'P 1'
_cell_length_a   5.85257139
_cell_length_b   5.85257139
_cell_length_c   8.16093913
_cell_angle_alpha   90.00000000
_cell_angle_beta   90.00000000
_cell_angle_gamma   120.00000000
_symmetry_Int_Tables_number   1
_chemical_formula_structural   K2Ge2Pb2O7
_chemical_formula_sum   'K2 Ge2 Pb2 O7'
_cell_volume   242.08295378
_cell_formula_units_Z   1
loop_
 _symmetry_equiv_pos_site_id
 _symmetry_equiv_pos_as_xyz
  1  'x, y, z'
loop_
 _atom_site_type_symbol
 _atom_site_label
 _atom_site_symmetry_multiplicity
 _atom_site_fract_x
 _atom_site_fract_y
 _atom_site_fract_z
 _atom_site_occupancy
  K  K0  1  0.33333333  0.66666667  0.57116953  1.0
  K  K1  1  0.66666667  0.33333333  0.42883047  1.0
  Ge  Ge2  1  0.00000000  0.00000000  0.22183190  1.0
  Ge  Ge3  1  0.00000000  0.00000000  0.77816810  1.0
  Pb  Pb4  1  0.33333333  0.66666667  0.11989636  1.0
  Pb  Pb5  1  0.66666667  0.33333333  0.88010364  1.0
  O  O6  1  0.22803075  0.90428784  0.28785215  1.0
  O  O7  1  0.90428784  0.67625709  0.71214785  1.0
  O  O8  1  0.67625709  0.77196925  0.28785215  1.0
  O  O9  1  0.09571216  0.32374291  0.28785215  1.0
  O  O10  1  0.77196925  0.09571216  0.71214785  1.0
  O  O11  1  0.32374291  0.22803075  0.71214785  1.0
  O  O12  1  0.00000000  0.00000000  0.00000000  1.0
