# generated using pymatgen
data_Li4ZrGe2
_symmetry_space_group_name_H-M   'P 1'
_cell_length_a   7.59746857
_cell_length_b   7.59746857
_cell_length_c   7.59746857
_cell_angle_alpha   34.01784273
_cell_angle_beta   34.01784273
_cell_angle_gamma   34.01784273
_symmetry_Int_Tables_number   1
_chemical_formula_structural   Li4ZrGe2
_chemical_formula_sum   'Li4 Zr1 Ge2'
_cell_volume   122.35023937
_cell_formula_units_Z   1
loop_
 _symmetry_equiv_pos_site_id
 _symmetry_equiv_pos_as_xyz
  1  'x, y, z'
loop_
 _atom_site_type_symbol
 _atom_site_label
 _atom_site_symmetry_multiplicity
 _atom_site_fract_x
 _atom_site_fract_y
 _atom_site_fract_z
 _atom_site_occupancy
  Li  Li0  1  0.75120573  0.75120573  0.75120573  1.0
  Li  Li1  1  1.24879427  1.24879427  0.24879427  1.0
  Li  Li2  1  1.57450876  0.57450876  0.57450876  1.0
  Li  Li3  1  1.42549124  0.42549124  0.42549124  1.0
  Zr  Zr4  1  0.00000000  0.00000000  0.00000000  1.0
  Ge  Ge5  1  0.87579067  0.87579067  0.87579067  1.0
  Ge  Ge6  1  1.12420933  1.12420933  0.12420933  1.0
