# generated using pymatgen
data_TlInTe2
_symmetry_space_group_name_H-M   'P 1'
_cell_length_a   7.15040258
_cell_length_b   7.15040258
_cell_length_c   7.15040258
_cell_angle_alpha   105.15728333
_cell_angle_beta   105.15728333
_cell_angle_gamma   118.49360817
_symmetry_Int_Tables_number   1
_chemical_formula_structural   TlInTe2
_chemical_formula_sum   'Tl2 In2 Te4'
_cell_volume   276.12165354
_cell_formula_units_Z   2
loop_
 _symmetry_equiv_pos_site_id
 _symmetry_equiv_pos_as_xyz
  1  'x, y, z'
loop_
 _atom_site_type_symbol
 _atom_site_label
 _atom_site_symmetry_multiplicity
 _atom_site_fract_x
 _atom_site_fract_y
 _atom_site_fract_z
 _atom_site_occupancy
  Tl  Tl0  1  0.25000000  0.25000000  0.00000000  1.0
  Tl  Tl1  1  0.75000000  0.75000000  0.00000000  1.0
  In  In2  1  0.75000000  0.25000000  0.50000000  1.0
  In  In3  1  0.25000000  0.75000000  0.50000000  1.0
  Te  Te4  1  0.82082657  0.32082657  1.14165314  1.0
  Te  Te5  1  0.67917343  0.82082657  0.50000000  1.0
  Te  Te6  1  0.32082657  0.17917343  0.50000000  1.0
  Te  Te7  1  1.17917343  0.67917343  0.85834686  1.0
