# generated using pymatgen
data_AlBW
_symmetry_space_group_name_H-M   'P 1'
_cell_length_a   7.16052110
_cell_length_b   7.16052110
_cell_length_c   3.11281009
_cell_angle_alpha   90.00000000
_cell_angle_beta   90.00000000
_cell_angle_gamma   154.04129334
_symmetry_Int_Tables_number   1
_chemical_formula_structural   AlBW
_chemical_formula_sum   'Al2 B2 W2'
_cell_volume   69.86208075
_cell_formula_units_Z   2
loop_
 _symmetry_equiv_pos_site_id
 _symmetry_equiv_pos_as_xyz
  1  'x, y, z'
loop_
 _atom_site_type_symbol
 _atom_site_label
 _atom_site_symmetry_multiplicity
 _atom_site_fract_x
 _atom_site_fract_y
 _atom_site_fract_z
 _atom_site_occupancy
  Al  Al0  1  0.20010720  0.79989280  0.75000000  1.0
  Al  Al1  1  -0.20010720  0.20010720  0.25000000  1.0
  B  B2  1  0.03415583  0.96584417  0.75000000  1.0
  B  B3  1  -0.03415583  0.03415583  0.25000000  1.0
  W  W4  1  0.40964290  0.59035710  0.75000000  1.0
  W  W5  1  -0.40964290  0.40964290  0.25000000  1.0
