# generated using pymatgen
data_Rh2O3
_symmetry_space_group_name_H-M   'P 1'
_cell_length_a   7.34526866
_cell_length_b   5.23197709
_cell_length_c   5.41918270
_cell_angle_alpha   90.00000000
_cell_angle_beta   90.00000000
_cell_angle_gamma   90.00000000
_symmetry_Int_Tables_number   1
_chemical_formula_structural   Rh2O3
_chemical_formula_sum   'Rh8 O12'
_cell_volume   208.26069417
_cell_formula_units_Z   4
loop_
 _symmetry_equiv_pos_site_id
 _symmetry_equiv_pos_as_xyz
  1  'x, y, z'
loop_
 _atom_site_type_symbol
 _atom_site_label
 _atom_site_symmetry_multiplicity
 _atom_site_fract_x
 _atom_site_fract_y
 _atom_site_fract_z
 _atom_site_occupancy
  Rh  Rh0  1  0.10695116  0.25023079  0.53091354  1.0
  Rh  Rh1  1  0.10695116  0.74976921  0.03091354  1.0
  Rh  Rh2  1  0.60695116  0.75023079  0.96908646  1.0
  Rh  Rh3  1  0.60695116  0.24976921  0.46908646  1.0
  Rh  Rh4  1  0.89304884  0.25023079  0.96908646  1.0
  Rh  Rh5  1  0.89304884  0.74976921  0.46908646  1.0
  Rh  Rh6  1  0.39304884  0.75023079  0.53091354  1.0
  Rh  Rh7  1  0.39304884  0.24976921  0.03091354  1.0
  O  O8  1  0.50000000  0.44904585  0.75000000  1.0
  O  O9  1  0.50000000  0.55095415  0.25000000  1.0
  O  O10  1  0.00000000  0.94904585  0.75000000  1.0
  O  O11  1  0.00000000  0.05095415  0.25000000  1.0
  O  O12  1  0.15138235  0.39291941  0.88898642  1.0
  O  O13  1  0.15138235  0.60708059  0.38898642  1.0
  O  O14  1  0.65138235  0.89291941  0.61101358  1.0
  O  O15  1  0.65138235  0.10708059  0.11101358  1.0
  O  O16  1  0.84861765  0.39291941  0.61101358  1.0
  O  O17  1  0.84861765  0.60708059  0.11101358  1.0
  O  O18  1  0.34861765  0.89291941  0.88898642  1.0
  O  O19  1  0.34861765  0.10708059  0.38898642  1.0
