# generated using pymatgen
data_Ta6Zn7
_symmetry_space_group_name_H-M   'P 1'
_cell_length_a   9.61470952
_cell_length_b   9.61470952
_cell_length_c   9.61470952
_cell_angle_alpha   30.41563495
_cell_angle_beta   30.41563495
_cell_angle_gamma   30.41563495
_symmetry_Int_Tables_number   1
_chemical_formula_structural   Ta6Zn7
_chemical_formula_sum   'Ta6 Zn7'
_cell_volume   201.91450482
_cell_formula_units_Z   1
loop_
 _symmetry_equiv_pos_site_id
 _symmetry_equiv_pos_as_xyz
  1  'x, y, z'
loop_
 _atom_site_type_symbol
 _atom_site_label
 _atom_site_symmetry_multiplicity
 _atom_site_fract_x
 _atom_site_fract_y
 _atom_site_fract_z
 _atom_site_occupancy
  Ta  Ta0  1  0.95445374  0.95445374  0.95445374  1.0
  Ta  Ta1  1  1.04554626  1.04554626  0.04554626  1.0
  Ta  Ta2  1  0.85051856  0.85051856  0.85051856  1.0
  Ta  Ta3  1  1.14948144  1.14948144  0.14948144  1.0
  Ta  Ta4  1  0.66474677  0.66474677  0.66474677  1.0
  Ta  Ta5  1  1.33525323  1.33525323  0.33525323  1.0
  Zn  Zn6  1  1.40608784  0.40608784  0.91395994  1.0
  Zn  Zn7  1  1.40608784  0.91395994  0.40608784  1.0
  Zn  Zn8  1  1.08604006  0.59391216  0.59391216  1.0
  Zn  Zn9  1  1.59391216  0.08604006  0.59391216  1.0
  Zn  Zn10  1  1.59391216  0.59391216  0.08604006  1.0
  Zn  Zn11  1  0.91395994  1.40608784  0.40608784  1.0
  Zn  Zn12  1  1.50000000  0.50000000  0.50000000  1.0
