# generated using pymatgen
data_K3Zr2S(O2F3)3
_symmetry_space_group_name_H-M   'P 1'
_cell_length_a   7.97442443
_cell_length_b   7.97442443
_cell_length_c   11.91618544
_cell_angle_alpha   69.89899005
_cell_angle_beta   110.10100995
_cell_angle_gamma   94.96344363
_symmetry_Int_Tables_number   1
_chemical_formula_structural   K3Zr2S(O2F3)3
_chemical_formula_sum   'K6 Zr4 S2 O12 F18'
_cell_volume   667.83602398
_cell_formula_units_Z   2
loop_
 _symmetry_equiv_pos_site_id
 _symmetry_equiv_pos_as_xyz
  1  'x, y, z'
loop_
 _atom_site_type_symbol
 _atom_site_label
 _atom_site_symmetry_multiplicity
 _atom_site_fract_x
 _atom_site_fract_y
 _atom_site_fract_z
 _atom_site_occupancy
  K  K0  1  0.32270520  -0.32270520  0.79657063  1.0
  K  K1  1  0.67729480  -0.67729480  0.20342937  1.0
  K  K2  1  0.67150806  -0.67150806  0.78622495  1.0
  K  K3  1  0.32849194  -0.32849194  0.21377505  1.0
  K  K4  1  0.78872798  -0.21127202  0.50000000  1.0
  K  K5  1  1.21127202  0.21127202  0.50000000  1.0
  S  S6  1  0.28789078  -0.28789078  0.48179119  1.0
  S  S7  1  0.71210922  -0.71210922  0.51820881  1.0
  Zr  Zr8  1  0.89463528  -0.23380780  0.88737073  1.0
  Zr  Zr9  1  1.23380780  0.10536472  0.88737073  1.0
  Zr  Zr10  1  0.76619220  -0.10536472  0.11262927  1.0
  Zr  Zr11  1  1.10536472  0.23380780  0.11262927  1.0
  F  F12  1  0.03231665  -0.03231665  0.19539121  1.0
  F  F13  1  0.96768335  -0.96768335  0.80460879  1.0
  F  F14  1  0.18613830  -0.18613830  0.96263634  1.0
  F  F15  1  0.81386170  -0.81386170  0.03736366  1.0
  F  F16  1  1.00000000  -0.50000000  0.00000000  1.0
  F  F17  1  0.50000000  0.00000000  0.00000000  1.0
  F  F18  1  0.67438618  -0.37803613  0.87309913  1.0
  F  F19  1  1.37803613  0.32561382  0.87309913  1.0
  F  F20  1  0.62196387  -0.32561382  0.12690087  1.0
  F  F21  1  1.32561382  0.37803613  0.12690087  1.0
  F  F22  1  0.94417787  -0.26756726  0.08563055  1.0
  F  F23  1  1.26756726  0.05582213  0.08563055  1.0
  F  F24  1  0.73243274  -0.05582213  0.91436945  1.0
  F  F25  1  1.05582213  0.26756726  0.91436945  1.0
  F  F26  1  0.97245453  -0.29679559  0.76208723  1.0
  F  F27  1  1.29679559  0.02754547  0.76208723  1.0
  F  F28  1  0.70320441  -0.02754547  0.23791277  1.0
  F  F29  1  1.02754547  0.29679559  0.23791277  1.0
  O  O30  1  1.11814536  0.30161642  0.68919363  1.0
  O  O31  1  0.69838358  -0.11814536  0.68919363  1.0
  O  O32  1  1.30161642  0.11814536  0.31080637  1.0
  O  O33  1  0.88185464  -0.30161642  0.31080637  1.0
  O  O34  1  0.41180131  -0.41180131  0.60117579  1.0
  O  O35  1  0.58819869  -0.58819869  0.39882421  1.0
  O  O36  1  0.82621046  -0.59774893  0.59292953  1.0
  O  O37  1  1.59774893  0.17378954  0.59292953  1.0
  O  O38  1  0.40225107  -0.17378954  0.40707047  1.0
  O  O39  1  1.17378954  0.59774893  0.40707047  1.0
  O  O40  1  0.17597961  -0.17597961  0.50696587  1.0
  O  O41  1  0.82402039  -0.82402039  0.49303413  1.0
