# generated using pymatgen
data_Li7PS6
_symmetry_space_group_name_H-M   'P 1'
_cell_length_a   14.30228790
_cell_length_b   7.09290545
_cell_length_c   9.82864367
_cell_angle_alpha   90.00000000
_cell_angle_beta   90.00000000
_cell_angle_gamma   90.00000000
_symmetry_Int_Tables_number   1
_chemical_formula_structural   Li7PS6
_chemical_formula_sum   'Li28 P4 S24'
_cell_volume   997.06455369
_cell_formula_units_Z   4
loop_
 _symmetry_equiv_pos_site_id
 _symmetry_equiv_pos_as_xyz
  1  'x, y, z'
loop_
 _atom_site_type_symbol
 _atom_site_label
 _atom_site_symmetry_multiplicity
 _atom_site_fract_x
 _atom_site_fract_y
 _atom_site_fract_z
 _atom_site_occupancy
  Li  Li0  1  0.46251268  0.95439740  0.48618610  1.0
  Li  Li1  1  0.96251268  0.54560260  0.48618610  1.0
  Li  Li2  1  0.53748732  0.04560260  -0.01381390  1.0
  Li  Li3  1  0.03748732  0.45439740  -0.01381390  1.0
  Li  Li4  1  0.47568243  0.65890610  0.82554097  1.0
  Li  Li5  1  0.97568243  0.84109390  0.82554097  1.0
  Li  Li6  1  0.52431757  0.34109390  0.32554097  1.0
  Li  Li7  1  0.02431757  0.15890610  0.32554097  1.0
  Li  Li8  1  0.18630516  0.72355525  0.69490102  1.0
  Li  Li9  1  0.68630516  0.77644475  0.69490102  1.0
  Li  Li10  1  0.81369484  0.27644475  0.19490102  1.0
  Li  Li11  1  0.31369484  0.22355525  0.19490102  1.0
  Li  Li12  1  0.22462504  0.46784732  0.98184246  1.0
  Li  Li13  1  0.72462504  1.03215268  0.98184246  1.0
  Li  Li14  1  0.77537496  0.53215268  0.48184246  1.0
  Li  Li15  1  0.27537496  -0.03215268  0.48184246  1.0
  Li  Li16  1  0.28176144  0.88750847  0.88102155  1.0
  Li  Li17  1  0.78176144  0.61249153  0.88102155  1.0
  Li  Li18  1  0.71823856  0.11249153  0.38102155  1.0
  Li  Li19  1  0.21823856  0.38750847  0.38102155  1.0
  Li  Li20  1  0.38819072  0.56585652  0.49991355  1.0
  Li  Li21  1  0.88819072  0.93414348  0.49991355  1.0
  Li  Li22  1  0.61180928  0.43414348  -0.00008645  1.0
  Li  Li23  1  0.11180928  0.06585652  -0.00008645  1.0
  Li  Li24  1  0.37420476  0.15814907  0.67398736  1.0
  Li  Li25  1  0.87420476  0.34185093  0.67398736  1.0
  Li  Li26  1  0.62579524  0.84185093  0.17398736  1.0
  Li  Li27  1  0.12579524  0.65814907  0.17398736  1.0
  P  P28  1  0.38065218  0.72586020  0.18368411  1.0
  P  P29  1  0.88065218  0.77413980  0.18368411  1.0
  P  P30  1  0.61934782  0.27413980  0.68368411  1.0
  P  P31  1  0.11934782  0.22586020  0.68368411  1.0
  S  S32  1  0.49567340  0.71050835  0.31116476  1.0
  S  S33  1  0.99567340  0.78949165  0.31116476  1.0
  S  S34  1  0.50432660  0.28949165  0.81116476  1.0
  S  S35  1  0.00432660  0.21050835  0.81116476  1.0
  S  S36  1  0.12920071  0.73900433  0.93033379  1.0
  S  S37  1  0.62920071  0.76099567  0.93033379  1.0
  S  S38  1  0.87079929  0.26099567  0.43033379  1.0
  S  S39  1  0.37079929  0.23900433  0.43033379  1.0
  S  S40  1  0.11372188  0.99948749  0.55449026  1.0
  S  S41  1  0.61372188  0.50051251  0.55449026  1.0
  S  S42  1  0.88627812  0.00051251  0.05449026  1.0
  S  S43  1  0.38627812  0.49948749  0.05449026  1.0
  S  S44  1  0.23522567  0.22326883  0.80908722  1.0
  S  S45  1  0.73522567  0.27673117  0.80908722  1.0
  S  S46  1  0.76477433  0.77673117  0.30908722  1.0
  S  S47  1  0.26477433  0.72326883  0.30908722  1.0
  S  S48  1  0.36019525  0.80417952  0.66899703  1.0
  S  S49  1  0.86019525  0.69582048  0.66899703  1.0
  S  S50  1  0.63980475  0.19582048  0.16899703  1.0
  S  S51  1  0.13980475  0.30417952  0.16899703  1.0
  S  S52  1  0.11779099  0.46882578  0.56834983  1.0
  S  S53  1  0.61779099  1.03117422  0.56834983  1.0
  S  S54  1  0.88220901  0.53117422  0.06834983  1.0
  S  S55  1  0.38220901  -0.03117422  0.06834983  1.0
