# generated using pymatgen
data_FeS2
_symmetry_space_group_name_H-M   'P 1'
_cell_length_a   5.40480780
_cell_length_b   5.40480873
_cell_length_c   5.40480933
_cell_angle_alpha   90.00000000
_cell_angle_beta   90.00000000
_cell_angle_gamma   90.00000000
_symmetry_Int_Tables_number   1
_chemical_formula_structural   FeS2
_chemical_formula_sum   'Fe4 S8'
_cell_volume   157.88503290
_cell_formula_units_Z   4
loop_
 _symmetry_equiv_pos_site_id
 _symmetry_equiv_pos_as_xyz
  1  'x, y, z'
loop_
 _atom_site_type_symbol
 _atom_site_label
 _atom_site_symmetry_multiplicity
 _atom_site_fract_x
 _atom_site_fract_y
 _atom_site_fract_z
 _atom_site_occupancy
  Fe  Fe0  1  0.49999231  0.25000844  0.49893460  1.0
  Fe  Fe1  1  0.99999231  0.74999156  0.49893460  1.0
  Fe  Fe2  1  0.50000769  0.74999156  -0.00106540  1.0
  Fe  Fe3  1  0.00000769  0.25000844  -0.00106540  1.0
  S  S4  1  0.38276344  0.13277569  0.88169932  1.0
  S  S5  1  0.88276344  0.86722431  0.88169932  1.0
  S  S6  1  0.61723656  0.86722431  0.38169932  1.0
  S  S7  1  0.11723656  0.13277569  0.38169932  1.0
  S  S8  1  0.38276955  0.63276221  0.61616609  1.0
  S  S9  1  0.88276955  0.36723779  0.61616609  1.0
  S  S10  1  0.61723045  0.36723779  0.11616609  1.0
  S  S11  1  0.11723045  0.63276221  0.11616609  1.0
