# generated using pymatgen
data_ZrCuSi
_symmetry_space_group_name_H-M   'P 1'
_cell_length_a   6.52521107
_cell_length_b   3.93614362
_cell_length_c   7.30248748
_cell_angle_alpha   90.00000000
_cell_angle_beta   90.00000000
_cell_angle_gamma   90.00000000
_symmetry_Int_Tables_number   1
_chemical_formula_structural   ZrCuSi
_chemical_formula_sum   'Zr4 Cu4 Si4'
_cell_volume   187.55831441
_cell_formula_units_Z   4
loop_
 _symmetry_equiv_pos_site_id
 _symmetry_equiv_pos_as_xyz
  1  'x, y, z'
loop_
 _atom_site_type_symbol
 _atom_site_label
 _atom_site_symmetry_multiplicity
 _atom_site_fract_x
 _atom_site_fract_y
 _atom_site_fract_z
 _atom_site_occupancy
  Zr  Zr0  1  0.99043468  0.75000000  0.69368416  1.0
  Zr  Zr1  1  0.49043468  0.75000000  0.80631584  1.0
  Zr  Zr2  1  0.00956532  0.25000000  0.30631584  1.0
  Zr  Zr3  1  0.50956532  0.25000000  0.19368416  1.0
  Cu  Cu4  1  0.82981952  0.75000000  0.07638373  1.0
  Cu  Cu5  1  0.32981952  0.75000000  0.42361627  1.0
  Cu  Cu6  1  0.17018048  0.25000000  0.92361627  1.0
  Cu  Cu7  1  0.67018048  0.25000000  0.57638373  1.0
  Si  Si8  1  0.72056179  0.75000000  0.39910108  1.0
  Si  Si9  1  0.22056179  0.75000000  0.10089892  1.0
  Si  Si10  1  0.27943821  0.25000000  0.60089892  1.0
  Si  Si11  1  0.77943821  0.25000000  0.89910108  1.0
