# generated using pymatgen
data_HC2N5
_symmetry_space_group_name_H-M   'P 1'
_cell_length_a   5.18290644
_cell_length_b   6.74913172
_cell_length_c   6.46275987
_cell_angle_alpha   90.00000000
_cell_angle_beta   100.41012132
_cell_angle_gamma   90.00000000
_symmetry_Int_Tables_number   1
_chemical_formula_structural   HC2N5
_chemical_formula_sum   'H2 C4 N10'
_cell_volume   222.34692539
_cell_formula_units_Z   2
loop_
 _symmetry_equiv_pos_site_id
 _symmetry_equiv_pos_as_xyz
  1  'x, y, z'
loop_
 _atom_site_type_symbol
 _atom_site_label
 _atom_site_symmetry_multiplicity
 _atom_site_fract_x
 _atom_site_fract_y
 _atom_site_fract_z
 _atom_site_occupancy
  H  H0  1  0.35205378  0.75000000  0.96096418  1.0
  H  H1  1  0.64794622  0.25000000  0.03903582  1.0
  C  C2  1  0.83029457  0.75000000  0.65346067  1.0
  C  C3  1  0.16970543  0.25000000  0.34653933  1.0
  C  C4  1  0.66409174  0.75000000  0.45314745  1.0
  C  C5  1  0.33590826  0.25000000  0.54685255  1.0
  N  N6  1  0.95937877  0.75000000  0.98589803  1.0
  N  N7  1  0.04062123  0.25000000  0.01410197  1.0
  N  N8  1  0.74574881  0.75000000  0.84160690  1.0
  N  N9  1  0.25425119  0.25000000  0.15839310  1.0
  N  N10  1  0.53126592  0.75000000  0.28788343  1.0
  N  N11  1  0.46873408  0.25000000  0.71211657  1.0
  N  N12  1  0.15926860  0.75000000  0.88329633  1.0
  N  N13  1  0.84073140  0.25000000  0.11670367  1.0
  N  N14  1  0.09272188  0.75000000  0.67698046  1.0
  N  N15  1  0.90727812  0.25000000  0.32301954  1.0
