# generated using pymatgen
data_Ba5Ru2Cl2O9
_symmetry_space_group_name_H-M   'P 1'
_cell_length_a   5.90038027
_cell_length_b   5.90038027
_cell_length_c   25.17708293
_cell_angle_alpha   90.00000000
_cell_angle_beta   90.00000000
_cell_angle_gamma   120.00000000
_symmetry_Int_Tables_number   1
_chemical_formula_structural   Ba5Ru2Cl2O9
_chemical_formula_sum   'Ba10 Ru4 Cl4 O18'
_cell_volume   759.09485134
_cell_formula_units_Z   2
loop_
 _symmetry_equiv_pos_site_id
 _symmetry_equiv_pos_as_xyz
  1  'x, y, z'
loop_
 _atom_site_type_symbol
 _atom_site_label
 _atom_site_symmetry_multiplicity
 _atom_site_fract_x
 _atom_site_fract_y
 _atom_site_fract_z
 _atom_site_occupancy
  Cl  Cl0  1  0.33333333  0.66666667  0.45420488  1.0
  Cl  Cl1  1  0.33333333  0.66666667  0.04579512  1.0
  Cl  Cl2  1  0.66666667  0.33333333  0.95420488  1.0
  Cl  Cl3  1  0.66666667  0.33333333  0.54579512  1.0
  O  O4  1  0.15107384  0.84892616  0.25000000  1.0
  O  O5  1  0.15107384  0.30214768  0.25000000  1.0
  O  O6  1  0.84892616  0.15107384  0.75000000  1.0
  O  O7  1  0.84892616  0.69785232  0.75000000  1.0
  O  O8  1  0.69785232  0.84892616  0.25000000  1.0
  O  O9  1  0.30214768  0.15107384  0.75000000  1.0
  O  O10  1  0.15985251  0.84014749  0.84423909  1.0
  O  O11  1  0.15985251  0.84014749  0.65576091  1.0
  O  O12  1  0.15985251  0.31970503  0.84423909  1.0
  O  O13  1  0.15985251  0.31970503  0.65576091  1.0
  O  O14  1  0.84014749  0.15985251  0.34423909  1.0
  O  O15  1  0.84014749  0.15985251  0.15576091  1.0
  O  O16  1  0.84014749  0.68029497  0.34423909  1.0
  O  O17  1  0.84014749  0.68029497  0.15576091  1.0
  O  O18  1  0.68029497  0.84014749  0.84423909  1.0
  O  O19  1  0.68029497  0.84014749  0.65576091  1.0
  O  O20  1  0.31970503  0.15985251  0.34423909  1.0
  O  O21  1  0.31970503  0.15985251  0.15576091  1.0
  Ba  Ba22  1  0.33333333  0.66666667  0.32890696  1.0
  Ba  Ba23  1  0.33333333  0.66666667  0.17109304  1.0
  Ba  Ba24  1  0.66666667  0.33333333  0.82890696  1.0
  Ba  Ba25  1  0.66666667  0.33333333  0.67109304  1.0
  Ba  Ba26  1  0.33333333  0.66666667  0.91740232  1.0
  Ba  Ba27  1  0.33333333  0.66666667  0.58259768  1.0
  Ba  Ba28  1  0.66666667  0.33333333  0.41740232  1.0
  Ba  Ba29  1  0.66666667  0.33333333  0.08259768  1.0
  Ba  Ba30  1  0.33333333  0.66666667  0.75000000  1.0
  Ba  Ba31  1  0.66666667  0.33333333  0.25000000  1.0
  Ru  Ru32  1  0.00000000  0.00000000  0.30639070  1.0
  Ru  Ru33  1  0.00000000  0.00000000  0.19360930  1.0
  Ru  Ru34  1  0.00000000  0.00000000  0.80639070  1.0
  Ru  Ru35  1  0.00000000  0.00000000  0.69360930  1.0
