# generated using pymatgen
data_Cs2MgCr2(H6O7)2
_symmetry_space_group_name_H-M   'P 1'
_cell_length_a   6.47508901
_cell_length_b   13.05041809
_cell_length_c   9.60555421
_cell_angle_alpha   90.00000000
_cell_angle_beta   105.29758750
_cell_angle_gamma   90.00000000
_symmetry_Int_Tables_number   1
_chemical_formula_structural   Cs2MgCr2(H6O7)2
_chemical_formula_sum   'Cs4 Mg2 Cr4 H24 O28'
_cell_volume   782.93495426
_cell_formula_units_Z   2
loop_
 _symmetry_equiv_pos_site_id
 _symmetry_equiv_pos_as_xyz
  1  'x, y, z'
loop_
 _atom_site_type_symbol
 _atom_site_label
 _atom_site_symmetry_multiplicity
 _atom_site_fract_x
 _atom_site_fract_y
 _atom_site_fract_z
 _atom_site_occupancy
  Cs  Cs0  1  0.33937740  0.85520326  0.62077152  1.0
  Cs  Cs1  1  0.66062260  0.35520326  0.87922848  1.0
  Cs  Cs2  1  0.66062260  0.14479674  0.37922848  1.0
  Cs  Cs3  1  0.33937740  0.64479674  0.12077152  1.0
  Mg  Mg4  1  -0.00000000  0.50000000  0.50000000  1.0
  Mg  Mg5  1  0.00000000  -0.00000000  0.00000000  1.0
  Cr  Cr6  1  0.74044109  0.64844272  0.89319357  1.0
  Cr  Cr7  1  0.25955891  0.14844272  0.60680643  1.0
  Cr  Cr8  1  0.25955891  0.35155728  0.10680643  1.0
  Cr  Cr9  1  0.74044109  0.85155728  0.39319357  1.0
  H  H10  1  0.32120482  0.59349305  0.70013474  1.0
  H  H11  1  0.67879518  0.09349305  0.79986526  1.0
  H  H12  1  0.67879518  0.40650695  0.29986526  1.0
  H  H13  1  0.32120482  0.90650695  0.20013474  1.0
  H  H14  1  0.09894600  0.63228053  0.72802131  1.0
  H  H15  1  0.90105400  0.13228053  0.77197869  1.0
  H  H16  1  0.90105400  0.36771947  0.27197869  1.0
  H  H17  1  0.09894600  0.86771947  0.22802131  1.0
  H  H18  1  0.92114332  0.59178553  0.22944285  1.0
  H  H19  1  0.07885668  0.09178553  0.27055715  1.0
  H  H20  1  0.07885668  0.40821447  0.77055715  1.0
  H  H21  1  0.92114332  0.90821447  0.72944285  1.0
  H  H22  1  0.99143456  0.67969013  0.34529587  1.0
  H  H23  1  0.00856544  0.17969013  0.15470413  1.0
  H  H24  1  0.00856544  0.32030987  0.65470413  1.0
  H  H25  1  0.99143456  0.82030987  0.84529587  1.0
  H  H26  1  0.33424206  0.44108925  0.39702584  1.0
  H  H27  1  0.66575794  0.94108925  0.10297416  1.0
  H  H28  1  0.66575795  0.55891075  0.60297416  1.0
  H  H29  1  0.33424206  0.05891075  0.89702584  1.0
  H  H30  1  0.32387708  0.36613256  0.52356812  1.0
  H  H31  1  0.67612292  0.86613256  0.97643188  1.0
  H  H32  1  0.67612292  0.63386744  0.47643188  1.0
  H  H33  1  0.32387708  0.13386744  0.02356812  1.0
  O  O34  1  0.59300176  0.74808009  0.91044109  1.0
  O  O35  1  0.40699824  0.24808009  0.58955891  1.0
  O  O36  1  0.40699824  0.25191991  0.08955891  1.0
  O  O37  1  0.59300176  0.75191991  0.41044109  1.0
  O  O38  1  0.80249977  0.58281362  0.04544880  1.0
  O  O39  1  0.19750023  0.08281362  0.45455120  1.0
  O  O40  1  0.19750023  0.41718638  0.95455120  1.0
  O  O41  1  0.80249977  0.91718638  0.54544880  1.0
  O  O42  1  0.59594434  0.57368522  0.76321144  1.0
  O  O43  1  0.40405566  0.07368522  0.73678856  1.0
  O  O44  1  0.40405566  0.42631478  0.23678856  1.0
  O  O45  1  0.59594434  0.92631478  0.26321144  1.0
  O  O46  1  0.96197220  0.68763577  0.85205112  1.0
  O  O47  1  0.03802780  0.18763577  0.64794888  1.0
  O  O48  1  0.03802780  0.31236423  0.14794888  1.0
  O  O49  1  0.96197220  0.81236423  0.35205112  1.0
  O  O50  1  0.16755251  0.60799656  0.65324212  1.0
  O  O51  1  0.83244749  0.10799656  0.84675788  1.0
  O  O52  1  0.83244749  0.39200344  0.34675788  1.0
  O  O53  1  0.16755251  0.89200344  0.15324212  1.0
  O  O54  1  0.00426745  0.60464065  0.33078523  1.0
  O  O55  1  0.99573255  0.10464065  0.16921477  1.0
  O  O56  1  0.99573255  0.39535935  0.66921477  1.0
  O  O57  1  0.00426745  0.89535935  0.83078523  1.0
  O  O58  1  0.28379606  0.43630705  0.48584360  1.0
  O  O59  1  0.71620394  0.93630705  0.01415640  1.0
  O  O60  1  0.71620394  0.56369295  0.51415640  1.0
  O  O61  1  0.28379606  0.06369295  0.98584360  1.0
