# generated using pymatgen
data_Nb5Sb4
_symmetry_space_group_name_H-M   'P 1'
_cell_length_a   7.54778311
_cell_length_b   7.54778311
_cell_length_c   7.54778311
_cell_angle_alpha   92.89982428
_cell_angle_beta   92.89982428
_cell_angle_gamma   154.00342450
_symmetry_Int_Tables_number   1
_chemical_formula_structural   Nb5Sb4
_chemical_formula_sum   'Nb5 Sb4'
_cell_volume   183.64279865
_cell_formula_units_Z   1
loop_
 _symmetry_equiv_pos_site_id
 _symmetry_equiv_pos_as_xyz
  1  'x, y, z'
loop_
 _atom_site_type_symbol
 _atom_site_label
 _atom_site_symmetry_multiplicity
 _atom_site_fract_x
 _atom_site_fract_y
 _atom_site_fract_z
 _atom_site_occupancy
  Nb  Nb0  1  0.00000000  0.00000000  0.00000000  1.0
  Nb  Nb1  1  0.95441738  1.34515202  1.29956939  1.0
  Nb  Nb2  1  1.04558262  0.65484798  0.70043061  1.0
  Nb  Nb3  1  0.34515202  0.04558262  0.39073464  1.0
  Nb  Nb4  1  0.65484798  0.95441738  1.60926536  1.0
  Sb  Sb5  1  0.67787936  1.36460682  1.04248619  1.0
  Sb  Sb6  1  1.32212064  0.63539318  0.95751381  1.0
  Sb  Sb7  1  0.36460682  0.32212064  0.68672746  1.0
  Sb  Sb8  1  0.63539318  0.67787936  1.31327254  1.0
