# generated using pymatgen
data_PbIF
_symmetry_space_group_name_H-M   'P 1'
_cell_length_a   4.22472012
_cell_length_b   4.22472012
_cell_length_c   10.03972938
_cell_angle_alpha   90.00000000
_cell_angle_beta   90.00000000
_cell_angle_gamma   90.00000000
_symmetry_Int_Tables_number   1
_chemical_formula_structural   PbIF
_chemical_formula_sum   'Pb2 I2 F2'
_cell_volume   179.19170142
_cell_formula_units_Z   2
loop_
 _symmetry_equiv_pos_site_id
 _symmetry_equiv_pos_as_xyz
  1  'x, y, z'
loop_
 _atom_site_type_symbol
 _atom_site_label
 _atom_site_symmetry_multiplicity
 _atom_site_fract_x
 _atom_site_fract_y
 _atom_site_fract_z
 _atom_site_occupancy
  Pb  Pb0  1  0.50000000  0.00000000  0.14828763  1.0
  Pb  Pb1  1  0.00000000  0.50000000  0.85171237  1.0
  I  I2  1  0.50000000  0.00000000  0.68846686  1.0
  I  I3  1  0.00000000  0.50000000  0.31153314  1.0
  F  F4  1  0.00000000  0.00000000  0.00000000  1.0
  F  F5  1  0.50000000  0.50000000  0.00000000  1.0
