# generated using pymatgen
data_KAlO2
_symmetry_space_group_name_H-M   'P 1'
_cell_length_a   5.49469041
_cell_length_b   11.02798100
_cell_length_c   15.62628687
_cell_angle_alpha   90.00000000
_cell_angle_beta   90.00000000
_cell_angle_gamma   90.00000000
_symmetry_Int_Tables_number   1
_chemical_formula_structural   KAlO2
_chemical_formula_sum   'K16 Al16 O32'
_cell_volume   946.88018930
_cell_formula_units_Z   16
loop_
 _symmetry_equiv_pos_site_id
 _symmetry_equiv_pos_as_xyz
  1  'x, y, z'
loop_
 _atom_site_type_symbol
 _atom_site_label
 _atom_site_symmetry_multiplicity
 _atom_site_fract_x
 _atom_site_fract_y
 _atom_site_fract_z
 _atom_site_occupancy
  K  K0  1  0.24611840  0.99234802  0.56178900  1.0
  K  K1  1  0.24611840  0.50765198  0.06178900  1.0
  K  K2  1  0.74611840  0.99234802  0.93821100  1.0
  K  K3  1  0.74611840  0.50765198  0.43821100  1.0
  K  K4  1  0.75388160  0.49234802  0.93821100  1.0
  K  K5  1  0.75388160  0.00765198  0.43821100  1.0
  K  K6  1  0.25388160  0.49234802  0.56178900  1.0
  K  K7  1  0.25388160  0.00765198  0.06178900  1.0
  K  K8  1  0.20496966  0.73859136  0.68516253  1.0
  K  K9  1  0.20496966  0.76140864  0.18516253  1.0
  K  K10  1  0.70496966  0.73859136  0.81483747  1.0
  K  K11  1  0.70496966  0.76140864  0.31483747  1.0
  K  K12  1  0.79503034  0.23859136  0.81483747  1.0
  K  K13  1  0.79503034  0.26140864  0.31483747  1.0
  K  K14  1  0.29503034  0.23859136  0.68516253  1.0
  K  K15  1  0.29503034  0.26140864  0.18516253  1.0
  Al  Al16  1  0.24451646  0.99166555  0.81141090  1.0
  Al  Al17  1  0.24451646  0.50833445  0.31141090  1.0
  Al  Al18  1  0.74451646  0.99166555  0.68858910  1.0
  Al  Al19  1  0.74451646  0.50833445  0.18858910  1.0
  Al  Al20  1  0.75548354  0.49166555  0.68858910  1.0
  Al  Al21  1  0.75548354  0.00833445  0.18858910  1.0
  Al  Al22  1  0.25548354  0.49166555  0.81141090  1.0
  Al  Al23  1  0.25548354  0.00833445  0.31141090  1.0
  Al  Al24  1  0.22080297  0.73743723  0.93635724  1.0
  Al  Al25  1  0.22080297  0.76256277  0.43635724  1.0
  Al  Al26  1  0.72080297  0.73743723  0.56364276  1.0
  Al  Al27  1  0.72080297  0.76256277  0.06364276  1.0
  Al  Al28  1  0.77919703  0.23743723  0.56364276  1.0
  Al  Al29  1  0.77919703  0.26256277  0.06364276  1.0
  Al  Al30  1  0.27919703  0.23743723  0.93635724  1.0
  Al  Al31  1  0.27919703  0.26256277  0.43635724  1.0
  O  O32  1  0.44897251  0.51535644  0.72161650  1.0
  O  O33  1  0.44897251  0.98464356  0.22161650  1.0
  O  O34  1  0.94897251  0.51535644  0.77838350  1.0
  O  O35  1  0.94897251  0.98464356  0.27838350  1.0
  O  O36  1  0.55102749  0.01535644  0.77838350  1.0
  O  O37  1  0.55102749  0.48464356  0.27838350  1.0
  O  O38  1  0.05102749  0.01535644  0.72161650  1.0
  O  O39  1  0.05102749  0.48464356  0.22161650  1.0
  O  O40  1  0.43123426  0.71364572  0.51570622  1.0
  O  O41  1  0.43123426  0.78635428  0.01570622  1.0
  O  O42  1  0.93123426  0.71364572  0.98429378  1.0
  O  O43  1  0.93123426  0.78635428  0.48429378  1.0
  O  O44  1  0.56876574  0.21364572  0.98429378  1.0
  O  O45  1  0.56876574  0.28635428  0.48429378  1.0
  O  O46  1  0.06876574  0.21364572  0.51570622  1.0
  O  O47  1  0.06876574  0.28635428  0.01570622  1.0
  O  O48  1  0.32497090  0.59594806  0.89490055  1.0
  O  O49  1  0.32497090  0.90405194  0.39490055  1.0
  O  O50  1  0.82497090  0.59594806  0.60509945  1.0
  O  O51  1  0.82497090  0.90405194  0.10509945  1.0
  O  O52  1  0.67502910  0.09594806  0.60509945  1.0
  O  O53  1  0.67502910  0.40405194  0.10509945  1.0
  O  O54  1  0.17502910  0.09594806  0.89490055  1.0
  O  O55  1  0.17502910  0.40405194  0.39490055  1.0
  O  O56  1  0.19910682  0.84165629  0.85011874  1.0
  O  O57  1  0.19910682  0.65834371  0.35011874  1.0
  O  O58  1  0.69910682  0.84165629  0.64988126  1.0
  O  O59  1  0.69910682  0.65834371  0.14988126  1.0
  O  O60  1  0.80089318  0.34165629  0.64988126  1.0
  O  O61  1  0.80089318  0.15834371  0.14988126  1.0
  O  O62  1  0.30089318  0.34165629  0.85011874  1.0
  O  O63  1  0.30089318  0.15834371  0.35011874  1.0
