# generated using pymatgen
data_K2PdSe2
_symmetry_space_group_name_H-M   'P 1'
_cell_length_a   6.46505412
_cell_length_b   6.46505412
_cell_length_c   6.46505412
_cell_angle_alpha   145.70507994
_cell_angle_beta   109.51025488
_cell_angle_gamma   80.78591655
_symmetry_Int_Tables_number   1
_chemical_formula_structural   K2PdSe2
_chemical_formula_sum   'K2 Pd1 Se2'
_cell_volume   140.06133857
_cell_formula_units_Z   1
loop_
 _symmetry_equiv_pos_site_id
 _symmetry_equiv_pos_as_xyz
  1  'x, y, z'
loop_
 _atom_site_type_symbol
 _atom_site_label
 _atom_site_symmetry_multiplicity
 _atom_site_fract_x
 _atom_site_fract_y
 _atom_site_fract_z
 _atom_site_occupancy
  K  K0  1  0.69750422  0.19750422  0.50000000  1.0
  K  K1  1  1.30249578  0.80249578  0.50000000  1.0
  Pd  Pd2  1  0.00000000  0.00000000  0.00000000  1.0
  Se  Se3  1  0.21952235  0.50000000  0.71952235  1.0
  Se  Se4  1  0.78047765  0.50000000  1.28047765  1.0
