# generated using pymatgen
data_TaTe2
_symmetry_space_group_name_H-M   'P 1'
_cell_length_a   9.42460286
_cell_length_b   9.42460286
_cell_length_c   9.60657242
_cell_angle_alpha   72.08962405
_cell_angle_beta   107.91037595
_cell_angle_gamma   108.75783950
_symmetry_Int_Tables_number   1
_chemical_formula_structural   TaTe2
_chemical_formula_sum   'Ta9 Te18'
_cell_volume   747.91347075
_cell_formula_units_Z   9
loop_
 _symmetry_equiv_pos_site_id
 _symmetry_equiv_pos_as_xyz
  1  'x, y, z'
loop_
 _atom_site_type_symbol
 _atom_site_label
 _atom_site_symmetry_multiplicity
 _atom_site_fract_x
 _atom_site_fract_y
 _atom_site_fract_z
 _atom_site_occupancy
  Ta  Ta0  1  0.69838492  -0.02151952  0.71194359  1.0
  Ta  Ta1  1  1.02151952  0.30161508  0.71194359  1.0
  Ta  Ta2  1  0.97848048  -0.30161508  0.28805641  1.0
  Ta  Ta3  1  1.30161508  0.02151952  0.28805641  1.0
  Ta  Ta4  1  0.36327171  -0.36327171  0.71018471  1.0
  Ta  Ta5  1  0.63672829  -0.63672829  0.28981529  1.0
  Ta  Ta6  1  0.69529906  -0.30470094  0.00000000  1.0
  Ta  Ta7  1  1.30470094  0.30470094  0.00000000  1.0
  Ta  Ta8  1  0.00000000  0.00000000  0.00000000  1.0
  Te  Te9  1  0.66301251  -0.32050788  0.69504050  1.0
  Te  Te10  1  1.32050788  0.33698749  0.69504050  1.0
  Te  Te11  1  0.67949212  -0.33698748  0.30495950  1.0
  Te  Te12  1  1.33698748  0.32050788  0.30495950  1.0
  Te  Te13  1  0.68649064  -0.00932896  0.98564518  1.0
  Te  Te14  1  1.00932896  0.31350936  0.98564518  1.0
  Te  Te15  1  0.99067104  -0.31350936  0.01435482  1.0
  Te  Te16  1  1.31350936  0.00932896  0.01435482  1.0
  Te  Te17  1  0.37435678  -0.04220349  0.61819390  1.0
  Te  Te18  1  1.04220349  0.62564322  0.61819390  1.0
  Te  Te19  1  0.95779651  -0.62564322  0.38180610  1.0
  Te  Te20  1  1.62564322  0.04220349  0.38180610  1.0
  Te  Te21  1  0.99301312  -0.99301312  0.69343136  1.0
  Te  Te22  1  0.00698688  -0.00698688  0.30656864  1.0
  Te  Te23  1  0.70415635  -0.70415635  0.61866266  1.0
  Te  Te24  1  0.29584365  -0.29584365  0.38133734  1.0
  Te  Te25  1  0.36679774  -0.36679774  0.98797987  1.0
  Te  Te26  1  0.63320226  -0.63320226  0.01202013  1.0
