# generated using pymatgen
data_K2LaTa5O15
_symmetry_space_group_name_H-M   'P 1'
_cell_length_a   12.70752604
_cell_length_b   12.70752604
_cell_length_c   3.95018431
_cell_angle_alpha   90.00000000
_cell_angle_beta   90.00000000
_cell_angle_gamma   90.00000000
_symmetry_Int_Tables_number   1
_chemical_formula_structural   K2LaTa5O15
_chemical_formula_sum   'K4 La2 Ta10 O30'
_cell_volume   637.88057395
_cell_formula_units_Z   2
loop_
 _symmetry_equiv_pos_site_id
 _symmetry_equiv_pos_as_xyz
  1  'x, y, z'
loop_
 _atom_site_type_symbol
 _atom_site_label
 _atom_site_symmetry_multiplicity
 _atom_site_fract_x
 _atom_site_fract_y
 _atom_site_fract_z
 _atom_site_occupancy
  K  K0  1  0.33040573  0.16959427  0.50000000  1.0
  K  K1  1  0.83040573  0.33040573  0.50000000  1.0
  K  K2  1  0.66959427  0.83040573  0.50000000  1.0
  K  K3  1  0.16959427  0.66959427  0.50000000  1.0
  La  La4  1  0.50000000  0.50000000  0.50000000  1.0
  La  La5  1  0.00000000  0.00000000  0.50000000  1.0
  Ta  Ta6  1  0.42357620  0.71396601  0.00000000  1.0
  Ta  Ta7  1  0.92357620  0.78603399  0.00000000  1.0
  Ta  Ta8  1  0.28603399  0.42357620  0.00000000  1.0
  Ta  Ta9  1  0.78603399  0.07642380  0.00000000  1.0
  Ta  Ta10  1  0.57642380  0.28603399  0.00000000  1.0
  Ta  Ta11  1  0.07642380  0.21396601  0.00000000  1.0
  Ta  Ta12  1  0.71396601  0.57642380  0.00000000  1.0
  Ta  Ta13  1  0.21396601  0.92357620  0.00000000  1.0
  Ta  Ta14  1  0.50000000  0.00000000  0.00000000  1.0
  Ta  Ta15  1  0.00000000  0.50000000  0.00000000  1.0
  O  O16  1  0.42264861  0.69431684  0.50000000  1.0
  O  O17  1  0.92264861  0.80568316  0.50000000  1.0
  O  O18  1  0.30568316  0.42264861  0.50000000  1.0
  O  O19  1  0.80568316  0.07735139  0.50000000  1.0
  O  O20  1  0.57735139  0.30568316  0.50000000  1.0
  O  O21  1  0.07735139  0.19431684  0.50000000  1.0
  O  O22  1  0.69431684  0.57735139  0.50000000  1.0
  O  O23  1  0.19431684  0.92264861  0.50000000  1.0
  O  O24  1  0.50125618  0.84298188  0.00000000  1.0
  O  O25  1  0.00125618  0.65701812  0.00000000  1.0
  O  O26  1  0.15701812  0.50125618  0.00000000  1.0
  O  O27  1  0.65701812  0.99874382  0.00000000  1.0
  O  O28  1  0.49874382  0.15701812  0.00000000  1.0
  O  O29  1  0.99874382  0.34298188  0.00000000  1.0
  O  O30  1  0.84298188  0.49874382  0.00000000  1.0
  O  O31  1  0.34298188  0.00125618  0.00000000  1.0
  O  O32  1  0.36664332  0.56155435  0.00000000  1.0
  O  O33  1  0.86664332  0.93844565  0.00000000  1.0
  O  O34  1  0.43844565  0.36664332  0.00000000  1.0
  O  O35  1  0.93844565  0.13335668  0.00000000  1.0
  O  O36  1  0.63335668  0.43844565  0.00000000  1.0
  O  O37  1  0.13335668  0.06155435  0.00000000  1.0
  O  O38  1  0.56155435  0.63335668  0.00000000  1.0
  O  O39  1  0.06155435  0.86664332  0.00000000  1.0
  O  O40  1  0.78441852  0.71558148  0.00000000  1.0
  O  O41  1  0.28441852  0.78441852  0.00000000  1.0
  O  O42  1  0.21558148  0.28441852  0.00000000  1.0
  O  O43  1  0.71558148  0.21558148  0.00000000  1.0
  O  O44  1  0.50000000  0.00000000  0.50000000  1.0
  O  O45  1  0.00000000  0.50000000  0.50000000  1.0
