# generated using pymatgen
data_TiSiIr
_symmetry_space_group_name_H-M   'P 1'
_cell_length_a   6.27176783
_cell_length_b   3.87292592
_cell_length_c   7.24507603
_cell_angle_alpha   90.00000000
_cell_angle_beta   90.00000000
_cell_angle_gamma   90.00000000
_symmetry_Int_Tables_number   1
_chemical_formula_structural   TiSiIr
_chemical_formula_sum   'Ti4 Si4 Ir4'
_cell_volume   175.98356480
_cell_formula_units_Z   4
loop_
 _symmetry_equiv_pos_site_id
 _symmetry_equiv_pos_as_xyz
  1  'x, y, z'
loop_
 _atom_site_type_symbol
 _atom_site_label
 _atom_site_symmetry_multiplicity
 _atom_site_fract_x
 _atom_site_fract_y
 _atom_site_fract_z
 _atom_site_occupancy
  Ti  Ti0  1  0.97673651  0.75000000  0.67983778  1.0
  Ti  Ti1  1  0.47673651  0.75000000  0.82016222  1.0
  Ti  Ti2  1  0.02326349  0.25000000  0.32016222  1.0
  Ti  Ti3  1  0.52326349  0.25000000  0.17983778  1.0
  Si  Si4  1  0.72853094  0.75000000  0.37594943  1.0
  Si  Si5  1  0.22853094  0.75000000  0.12405057  1.0
  Si  Si6  1  0.27146906  0.25000000  0.62405057  1.0
  Si  Si7  1  0.77146906  0.25000000  0.87594943  1.0
  Ir  Ir8  1  0.84346060  0.75000000  0.06129558  1.0
  Ir  Ir9  1  0.34346060  0.75000000  0.43870442  1.0
  Ir  Ir10  1  0.15653940  0.25000000  0.93870442  1.0
  Ir  Ir11  1  0.65653940  0.25000000  0.56129558  1.0
