# generated using pymatgen
data_TaCl4
_symmetry_space_group_name_H-M   'P 1'
_cell_length_a   7.35546125
_cell_length_b   7.35546125
_cell_length_c   8.67980070
_cell_angle_alpha   55.04317319
_cell_angle_beta   124.95682681
_cell_angle_gamma   124.75981755
_symmetry_Int_Tables_number   1
_chemical_formula_structural   TaCl4
_chemical_formula_sum   'Ta2 Cl8'
_cell_volume   294.28360587
_cell_formula_units_Z   2
loop_
 _symmetry_equiv_pos_site_id
 _symmetry_equiv_pos_as_xyz
  1  'x, y, z'
loop_
 _atom_site_type_symbol
 _atom_site_label
 _atom_site_symmetry_multiplicity
 _atom_site_fract_x
 _atom_site_fract_y
 _atom_site_fract_z
 _atom_site_occupancy
  Ta  Ta0  1  0.78011951  0.78011951  -0.00000000  1.0
  Ta  Ta1  1  0.21988049  0.21988049  -0.00000000  1.0
  Cl  Cl2  1  1.73886976  -0.22820818  0.71882571  1.0
  Cl  Cl3  1  1.22820818  -0.73886976  0.71882571  1.0
  Cl  Cl4  1  0.77179182  0.73886976  0.28117429  1.0
  Cl  Cl5  1  0.26113024  0.22820818  0.28117429  1.0
  Cl  Cl6  1  0.80713419  0.19286581  0.82841151  1.0
  Cl  Cl7  1  1.19286581  -0.19286581  0.17158849  1.0
  Cl  Cl8  1  0.33226178  -0.33226178  0.85072596  1.0
  Cl  Cl9  1  0.66773822  -0.66773822  0.14927404  1.0
