# generated using pymatgen
data_NaTi2(PO4)3
_symmetry_space_group_name_H-M   'P 1'
_cell_length_a   8.87834781
_cell_length_b   8.87834781
_cell_length_c   8.87834781
_cell_angle_alpha   58.09551091
_cell_angle_beta   58.09551091
_cell_angle_gamma   58.09551091
_symmetry_Int_Tables_number   1
_chemical_formula_structural   NaTi2(PO4)3
_chemical_formula_sum   'Na2 Ti4 P6 O24'
_cell_volume   473.25135283
_cell_formula_units_Z   2
loop_
 _symmetry_equiv_pos_site_id
 _symmetry_equiv_pos_as_xyz
  1  'x, y, z'
loop_
 _atom_site_type_symbol
 _atom_site_label
 _atom_site_symmetry_multiplicity
 _atom_site_fract_x
 _atom_site_fract_y
 _atom_site_fract_z
 _atom_site_occupancy
  Na  Na0  1  1.00000000  0.00000000  0.00000000  1.0
  Na  Na1  1  0.50000000  0.50000000  0.50000000  1.0
  Ti  Ti2  1  0.85526076  -0.14473924  -0.14473924  1.0
  Ti  Ti3  1  0.35526076  0.35526076  0.35526076  1.0
  Ti  Ti4  1  0.64473924  0.64473924  -0.35526076  1.0
  Ti  Ti5  1  1.14473924  0.14473924  0.14473924  1.0
  P  P6  1  0.46297424  0.75000000  0.03702576  1.0
  P  P7  1  0.96297424  -0.46297424  0.25000000  1.0
  P  P8  1  0.25000000  0.96297424  -0.46297424  1.0
  P  P9  1  0.75000000  1.03702576  -0.53702576  1.0
  P  P10  1  0.53702576  0.25000000  -0.03702576  1.0
  P  P11  1  1.03702576  0.46297424  -0.25000000  1.0
  O  O12  1  0.78581267  1.00297018  -0.36666448  1.0
  O  O13  1  1.28581267  0.13333552  -0.49702982  1.0
  O  O14  1  0.86666448  0.49702982  -0.28581267  1.0
  O  O15  1  0.36666448  0.21418733  -0.00297018  1.0
  O  O16  1  0.99702982  0.36666448  -0.78581267  1.0
  O  O17  1  0.49702982  0.71418733  -0.13333552  1.0
  O  O18  1  0.21418733  0.99702982  -0.63333552  1.0
  O  O19  1  0.71418733  0.86666448  -0.50297018  1.0
  O  O20  1  0.63333552  0.78581267  0.00297018  1.0
  O  O21  1  1.13333552  -0.49702982  0.28581267  1.0
  O  O22  1  0.50297018  0.28581267  0.13333552  1.0
  O  O23  1  1.00297018  0.63333552  -0.21418733  1.0
  O  O24  1  0.72007969  0.07630019  -0.06039598  1.0
  O  O25  1  1.22007969  0.43960402  -0.42369981  1.0
  O  O26  1  0.56039598  0.42369981  -0.22007969  1.0
  O  O27  1  1.06039598  0.27992031  -0.07630019  1.0
  O  O28  1  0.92369981  0.06039598  0.27992031  1.0
  O  O29  1  0.42369981  0.77992031  -0.43960402  1.0
  O  O30  1  1.27992031  -0.07630019  0.06039598  1.0
  O  O31  1  0.77992031  0.56039598  -0.57630019  1.0
  O  O32  1  0.93960402  -0.27992031  0.07630019  1.0
  O  O33  1  0.43960402  0.57630019  0.22007969  1.0
  O  O34  1  0.57630019  1.22007969  -0.56039598  1.0
  O  O35  1  1.07630019  -0.06039598  -0.27992031  1.0
