# generated using pymatgen
data_HC2N7O2
_symmetry_space_group_name_H-M   'P 1'
_cell_length_a   10.56870268
_cell_length_b   6.18190154
_cell_length_c   9.93706504
_cell_angle_alpha   90.00000000
_cell_angle_beta   90.00000000
_cell_angle_gamma   90.00000000
_symmetry_Int_Tables_number   1
_chemical_formula_structural   HC2N7O2
_chemical_formula_sum   'H4 C8 N28 O8'
_cell_volume   649.23495843
_cell_formula_units_Z   4
loop_
 _symmetry_equiv_pos_site_id
 _symmetry_equiv_pos_as_xyz
  1  'x, y, z'
loop_
 _atom_site_type_symbol
 _atom_site_label
 _atom_site_symmetry_multiplicity
 _atom_site_fract_x
 _atom_site_fract_y
 _atom_site_fract_z
 _atom_site_occupancy
  H  H0  1  0.09598318  0.75000000  0.79530295  1.0
  H  H1  1  0.59598318  0.75000000  0.70469705  1.0
  H  H2  1  0.90401682  0.25000000  0.20469705  1.0
  H  H3  1  0.40401682  0.25000000  0.29530295  1.0
  C  C4  1  0.33304424  0.75000000  0.62026054  1.0
  C  C5  1  0.83304424  0.75000000  0.87973946  1.0
  C  C6  1  0.66695576  0.25000000  0.37973946  1.0
  C  C7  1  0.16695576  0.25000000  0.12026054  1.0
  C  C8  1  0.29977518  0.75000000  0.82623880  1.0
  C  C9  1  0.79977518  0.75000000  0.67376120  1.0
  C  C10  1  0.70022482  0.25000000  0.17376120  1.0
  C  C11  1  0.20022482  0.25000000  0.32623880  1.0
  N  N12  1  0.48864596  0.75000000  0.09370225  1.0
  N  N13  1  0.98864596  0.75000000  0.40629775  1.0
  N  N14  1  0.51135404  0.25000000  0.90629775  1.0
  N  N15  1  0.01135404  0.25000000  0.59370225  1.0
  N  N16  1  0.40364994  0.75000000  0.02373455  1.0
  N  N17  1  0.90364994  0.75000000  0.47626545  1.0
  N  N18  1  0.59635006  0.25000000  0.97626545  1.0
  N  N19  1  0.09635006  0.25000000  0.52373455  1.0
  N  N20  1  0.39572535  0.75000000  0.73887187  1.0
  N  N21  1  0.89572535  0.75000000  0.76112813  1.0
  N  N22  1  0.60427465  0.25000000  0.26112813  1.0
  N  N23  1  0.10427465  0.25000000  0.23887187  1.0
  N  N24  1  0.30053198  0.75000000  0.96439300  1.0
  N  N25  1  0.80053198  0.75000000  0.53560700  1.0
  N  N26  1  0.69946802  0.25000000  0.03560700  1.0
  N  N27  1  0.19946802  0.25000000  0.46439300  1.0
  N  N28  1  0.20764834  0.75000000  0.62578756  1.0
  N  N29  1  0.70764834  0.75000000  0.87421244  1.0
  N  N30  1  0.79235166  0.25000000  0.37421244  1.0
  N  N31  1  0.29235166  0.25000000  0.12578756  1.0
  N  N32  1  0.18747781  0.75000000  0.75882937  1.0
  N  N33  1  0.68747781  0.75000000  0.74117063  1.0
  N  N34  1  0.81252219  0.25000000  0.24117063  1.0
  N  N35  1  0.31252219  0.25000000  0.25882937  1.0
  N  N36  1  0.89891212  0.75000000  0.00754660  1.0
  N  N37  1  0.39891212  0.75000000  0.49245340  1.0
  N  N38  1  0.10108788  0.25000000  0.99245340  1.0
  N  N39  1  0.60108788  0.25000000  0.50754660  1.0
  O  O40  1  0.33549132  0.75000000  0.38861711  1.0
  O  O41  1  0.83549132  0.75000000  0.11138289  1.0
  O  O42  1  0.66450868  0.25000000  0.61138289  1.0
  O  O43  1  0.16450868  0.25000000  0.88861711  1.0
  O  O44  1  0.01607789  0.75000000  0.00255305  1.0
  O  O45  1  0.51607789  0.75000000  0.49744695  1.0
  O  O46  1  0.98392211  0.25000000  0.99744695  1.0
  O  O47  1  0.48392211  0.25000000  0.50255305  1.0
