# generated using pymatgen
data_FeCo2BO5
_symmetry_space_group_name_H-M   'P 1'
_cell_length_a   9.30638776
_cell_length_b   12.36849023
_cell_length_c   3.02852902
_cell_angle_alpha   90.00000000
_cell_angle_beta   90.00000000
_cell_angle_gamma   90.00000000
_symmetry_Int_Tables_number   1
_chemical_formula_structural   FeCo2BO5
_chemical_formula_sum   'Fe4 Co8 B4 O20'
_cell_volume   348.60175881
_cell_formula_units_Z   4
loop_
 _symmetry_equiv_pos_site_id
 _symmetry_equiv_pos_as_xyz
  1  'x, y, z'
loop_
 _atom_site_type_symbol
 _atom_site_label
 _atom_site_symmetry_multiplicity
 _atom_site_fract_x
 _atom_site_fract_y
 _atom_site_fract_z
 _atom_site_occupancy
  Fe  Fe0  1  0.26343916  0.88994048  0.00000000  1.0
  Fe  Fe1  1  0.76343916  0.61005952  0.00000000  1.0
  Fe  Fe2  1  0.73656084  0.11005952  0.00000000  1.0
  Fe  Fe3  1  0.23656084  0.38994048  0.00000000  1.0
  Co  Co4  1  0.49637973  0.71349394  0.50000000  1.0
  Co  Co5  1  -0.00362027  0.78650606  0.50000000  1.0
  Co  Co6  1  0.50362027  0.28650606  0.50000000  1.0
  Co  Co7  1  1.00362027  0.21349394  0.50000000  1.0
  Co  Co8  1  0.50000000  0.00000000  0.50000000  1.0
  Co  Co9  1  0.00000000  0.50000000  0.50000000  1.0
  Co  Co10  1  0.50000000  0.50000000  0.00000000  1.0
  Co  Co11  1  0.00000000  0.00000000  0.00000000  1.0
  B  B12  1  0.22181898  0.64324349  0.00000000  1.0
  B  B13  1  0.72181898  0.85675651  0.00000000  1.0
  B  B14  1  0.77818102  0.35675651  0.00000000  1.0
  B  B15  1  0.27818102  0.14324349  0.00000000  1.0
  O  O16  1  0.39734656  0.85358772  0.50000000  1.0
  O  O17  1  0.89734656  0.64641228  0.50000000  1.0
  O  O18  1  0.60265344  0.14641228  0.50000000  1.0
  O  O19  1  0.10265344  0.35358772  0.50000000  1.0
  O  O20  1  0.11361643  0.92794235  0.50000000  1.0
  O  O21  1  0.61361643  0.57205765  0.50000000  1.0
  O  O22  1  0.88638357  0.07205765  0.50000000  1.0
  O  O23  1  0.38638357  0.42794235  0.50000000  1.0
  O  O24  1  0.37056669  0.64225076  0.00000000  1.0
  O  O25  1  0.87056669  0.85774924  0.00000000  1.0
  O  O26  1  0.62943331  0.35774924  0.00000000  1.0
  O  O27  1  0.12943331  0.14225076  0.00000000  1.0
  O  O28  1  0.14947183  0.74053844  0.00000000  1.0
  O  O29  1  0.64947183  0.75946156  0.00000000  1.0
  O  O30  1  0.85052817  0.25946156  0.00000000  1.0
  O  O31  1  0.35052817  0.24053844  0.00000000  1.0
  O  O32  1  0.14724261  0.54625567  0.00000000  1.0
  O  O33  1  0.64724261  0.95374433  0.00000000  1.0
  O  O34  1  0.85275739  0.45374433  0.00000000  1.0
  O  O35  1  0.35275739  0.04625567  0.00000000  1.0
