# generated using pymatgen
data_Li3NbO4
_symmetry_space_group_name_H-M   'P 1'
_cell_length_a   7.33982812
_cell_length_b   7.33982812
_cell_length_c   7.33982812
_cell_angle_alpha   109.47122063
_cell_angle_beta   109.47122063
_cell_angle_gamma   109.47122063
_symmetry_Int_Tables_number   1
_chemical_formula_structural   Li3NbO4
_chemical_formula_sum   'Li12 Nb4 O16'
_cell_volume   304.39378419
_cell_formula_units_Z   4
loop_
 _symmetry_equiv_pos_site_id
 _symmetry_equiv_pos_as_xyz
  1  'x, y, z'
loop_
 _atom_site_type_symbol
 _atom_site_label
 _atom_site_symmetry_multiplicity
 _atom_site_fract_x
 _atom_site_fract_y
 _atom_site_fract_z
 _atom_site_occupancy
  Li  Li0  1  0.75740677  0.48576476  0.48576476  1.0
  Li  Li1  1  0.48576476  0.75740677  0.48576476  1.0
  Li  Li2  1  1.00000000  1.27164201  0.51423524  1.0
  Li  Li3  1  1.27164201  1.00000000  0.51423524  1.0
  Li  Li4  1  0.48576476  0.48576476  0.75740677  1.0
  Li  Li5  1  0.72835799  0.72835799  0.24259323  1.0
  Li  Li6  1  1.00000000  0.51423524  1.27164201  1.0
  Li  Li7  1  0.72835799  0.24259323  0.72835799  1.0
  Li  Li8  1  0.24259323  0.72835799  0.72835799  1.0
  Li  Li9  1  0.51423524  1.00000000  1.27164201  1.0
  Li  Li10  1  1.27164201  0.51423524  1.00000000  1.0
  Li  Li11  1  0.51423524  1.27164201  1.00000000  1.0
  Nb  Nb12  1  0.28053692  0.28053692  0.28053692  1.0
  Nb  Nb13  1  1.00000000  1.00000000  0.71946308  1.0
  Nb  Nb14  1  1.00000000  0.71946308  1.00000000  1.0
  Nb  Nb15  1  0.71946308  1.00000000  1.00000000  1.0
  O  O16  1  0.24555446  0.48471125  0.48471125  1.0
  O  O17  1  0.48471125  0.24555446  0.48471125  1.0
  O  O18  1  1.00000000  0.76084321  1.51528875  1.0
  O  O19  1  0.76084321  1.00000000  1.51528875  1.0
  O  O20  1  0.48471125  0.48471125  0.24555446  1.0
  O  O21  1  1.23915679  1.23915679  0.75444554  1.0
  O  O22  1  1.00000000  1.51528875  0.76084321  1.0
  O  O23  1  1.23915679  0.75444554  1.23915679  1.0
  O  O24  1  0.75444554  1.23915679  1.23915679  1.0
  O  O25  1  1.51528875  1.00000000  0.76084321  1.0
  O  O26  1  0.76084321  1.51528875  1.00000000  1.0
  O  O27  1  1.51528875  0.76084321  1.00000000  1.0
  O  O28  1  0.77357414  0.77357414  0.77357414  1.0
  O  O29  1  1.00000000  1.00000000  0.22642586  1.0
  O  O30  1  1.00000000  0.22642586  1.00000000  1.0
  O  O31  1  0.22642586  1.00000000  1.00000000  1.0
