# generated using pymatgen
data_La5Si4
_symmetry_space_group_name_H-M   'P 1'
_cell_length_a   8.04995459
_cell_length_b   8.04995459
_cell_length_c   15.56974713
_cell_angle_alpha   90.00000000
_cell_angle_beta   90.00000000
_cell_angle_gamma   90.00000000
_symmetry_Int_Tables_number   1
_chemical_formula_structural   La5Si4
_chemical_formula_sum   'La20 Si16'
_cell_volume   1008.94715554
_cell_formula_units_Z   4
loop_
 _symmetry_equiv_pos_site_id
 _symmetry_equiv_pos_as_xyz
  1  'x, y, z'
loop_
 _atom_site_type_symbol
 _atom_site_label
 _atom_site_symmetry_multiplicity
 _atom_site_fract_x
 _atom_site_fract_y
 _atom_site_fract_z
 _atom_site_occupancy
  La  La0  1  0.52091174  0.62531652  0.12637847  1.0
  La  La1  1  0.02091174  0.87468348  0.62362153  1.0
  La  La2  1  0.37468348  0.47908826  0.37362153  1.0
  La  La3  1  0.87468348  0.02091174  0.37637847  1.0
  La  La4  1  0.47908826  0.37468348  0.62637847  1.0
  La  La5  1  0.97908826  0.12531652  0.12362153  1.0
  La  La6  1  0.62531652  0.52091174  0.87362153  1.0
  La  La7  1  0.12531652  0.97908826  0.87637847  1.0
  La  La8  1  0.98887109  0.62012376  0.05299062  1.0
  La  La9  1  0.48887109  0.87987624  0.69700938  1.0
  La  La10  1  0.37987624  0.01112891  0.44700938  1.0
  La  La11  1  0.87987624  0.48887109  0.30299062  1.0
  La  La12  1  0.01112891  0.37987624  0.55299062  1.0
  La  La13  1  0.51112891  0.12012376  0.19700938  1.0
  La  La14  1  0.62012376  0.98887109  0.94700938  1.0
  La  La15  1  0.12012376  0.51112891  0.80299062  1.0
  La  La16  1  0.19269148  0.80730852  0.25000000  1.0
  La  La17  1  0.69269148  0.69269148  0.50000000  1.0
  La  La18  1  0.80730852  0.19269148  0.75000000  1.0
  La  La19  1  0.30730852  0.30730852  0.00000000  1.0
  Si  Si20  1  0.32918160  0.69480454  0.95451743  1.0
  Si  Si21  1  0.82918160  0.80519546  0.79548257  1.0
  Si  Si22  1  0.30519546  0.67081840  0.54548257  1.0
  Si  Si23  1  0.80519546  0.82918160  0.20451743  1.0
  Si  Si24  1  0.67081840  0.30519546  0.45451743  1.0
  Si  Si25  1  0.17081840  0.19480454  0.29548257  1.0
  Si  Si26  1  0.69480454  0.32918160  0.04548257  1.0
  Si  Si27  1  0.19480454  0.17081840  0.70451743  1.0
  Si  Si28  1  0.28912535  0.91991548  0.05929423  1.0
  Si  Si29  1  0.78912535  0.58008452  0.69070577  1.0
  Si  Si30  1  0.08008452  0.71087465  0.44070577  1.0
  Si  Si31  1  0.58008452  0.78912535  0.30929423  1.0
  Si  Si32  1  0.71087465  0.08008452  0.55929423  1.0
  Si  Si33  1  0.21087465  0.41991548  0.19070577  1.0
  Si  Si34  1  0.91991548  0.28912535  0.94070577  1.0
  Si  Si35  1  0.41991548  0.21087465  0.80929423  1.0
