# generated using pymatgen
data_La(Mo4O7)2
_symmetry_space_group_name_H-M   'P 1'
_cell_length_a   7.51013496
_cell_length_b   7.51013496
_cell_length_c   9.43715912
_cell_angle_alpha   90.00000000
_cell_angle_beta   90.00000000
_cell_angle_gamma   96.40636459
_symmetry_Int_Tables_number   1
_chemical_formula_structural   La(Mo4O7)2
_chemical_formula_sum   'La2 Mo16 O28'
_cell_volume   528.95206861
_cell_formula_units_Z   2
loop_
 _symmetry_equiv_pos_site_id
 _symmetry_equiv_pos_as_xyz
  1  'x, y, z'
loop_
 _atom_site_type_symbol
 _atom_site_label
 _atom_site_symmetry_multiplicity
 _atom_site_fract_x
 _atom_site_fract_y
 _atom_site_fract_z
 _atom_site_occupancy
  La  La0  1  -0.28339495  1.28339495  0.50000000  1.0
  La  La1  1  0.21660505  0.78339495  0.00000000  1.0
  Mo  Mo2  1  0.44787220  0.70174861  0.38157457  1.0
  Mo  Mo3  1  -0.20174861  1.05212780  0.88157457  1.0
  Mo  Mo4  1  0.29825139  0.55212780  0.61842543  1.0
  Mo  Mo5  1  -0.05212780  1.20174861  0.11842543  1.0
  Mo  Mo6  1  0.21073090  0.95015169  0.37311898  1.0
  Mo  Mo7  1  -0.45015169  1.28926910  0.87311898  1.0
  Mo  Mo8  1  0.04984831  0.78926910  0.62688102  1.0
  Mo  Mo9  1  -0.28926910  1.45015169  0.12688102  1.0
  Mo  Mo10  1  -0.64276285  1.31949187  0.12791380  1.0
  Mo  Mo11  1  -0.81949187  1.14276285  0.62791380  1.0
  Mo  Mo12  1  -0.31949187  1.64276285  0.87208620  1.0
  Mo  Mo13  1  -0.14276285  1.81949187  0.37208620  1.0
  Mo  Mo14  1  -0.41061145  1.08948157  0.11877564  1.0
  Mo  Mo15  1  0.41051843  0.91061145  0.61877564  1.0
  Mo  Mo16  1  -0.08948157  1.41061145  0.88122436  1.0
  Mo  Mo17  1  0.08938855  0.58948157  0.38122436  1.0
  O  O18  1  -0.60809335  1.12499997  0.48863286  1.0
  O  O19  1  -0.62499997  1.10809335  0.98863286  1.0
  O  O20  1  -0.12499997  1.60809335  0.51136714  1.0
  O  O21  1  -0.10809335  1.62499997  0.01136714  1.0
  O  O22  1  0.62528086  0.87167631  0.48451500  1.0
  O  O23  1  0.62832369  0.87471914  0.98451500  1.0
  O  O24  1  0.12832369  0.37471914  0.51548500  1.0
  O  O25  1  0.12528086  0.37167631  0.01548500  1.0
  O  O26  1  -0.43866638  1.28370365  0.26778358  1.0
  O  O27  1  0.21629635  0.93866638  0.76778358  1.0
  O  O28  1  -0.28370365  1.43866638  0.73221642  1.0
  O  O29  1  0.06133362  0.78370365  0.23221642  1.0
  O  O30  1  -0.19890233  1.03356327  0.24779229  1.0
  O  O31  1  0.46643673  0.69890233  0.74779229  1.0
  O  O32  1  -0.03356327  1.19890233  0.75220771  1.0
  O  O33  1  0.30109767  0.53356327  0.25220771  1.0
  O  O34  1  -0.81743303  1.15854383  0.23743901  1.0
  O  O35  1  -0.65854383  1.31743303  0.73743901  1.0
  O  O36  1  -0.15854383  1.81743303  0.76256099  1.0
  O  O37  1  -0.31743303  1.65854383  0.26256099  1.0
  O  O38  1  0.41227646  0.90150817  0.23598430  1.0
  O  O39  1  -0.40150817  1.08772354  0.73598430  1.0
  O  O40  1  0.09849183  0.58772354  0.76401570  1.0
  O  O41  1  -0.08772354  1.40150817  0.26401570  1.0
  O  O42  1  0.49959126  0.50040874  0.50000000  1.0
  O  O43  1  -0.00040874  0.00040874  0.00000000  1.0
  O  O44  1  -0.01691838  1.01691838  0.50000000  1.0
  O  O45  1  0.48308162  0.51691838  0.00000000  1.0
