# generated using pymatgen
data_CoSnH12(OF)6
_symmetry_space_group_name_H-M   'P 1'
_cell_length_a   6.64587886
_cell_length_b   6.64587886
_cell_length_c   6.64587886
_cell_angle_alpha   96.53662728
_cell_angle_beta   96.53662728
_cell_angle_gamma   96.53662728
_symmetry_Int_Tables_number   1
_chemical_formula_structural   CoSnH12(OF)6
_chemical_formula_sum   'Co1 Sn1 H12 O6 F6'
_cell_volume   287.32869334
_cell_formula_units_Z   1
loop_
 _symmetry_equiv_pos_site_id
 _symmetry_equiv_pos_as_xyz
  1  'x, y, z'
loop_
 _atom_site_type_symbol
 _atom_site_label
 _atom_site_symmetry_multiplicity
 _atom_site_fract_x
 _atom_site_fract_y
 _atom_site_fract_z
 _atom_site_occupancy
  Co  Co0  1  0.50000000  0.50000000  0.50000000  1.0
  Sn  Sn1  1  -0.00000000  -0.00000000  -0.00000000  1.0
  H  H2  1  1.54569480  0.69701483  -0.10811323  1.0
  H  H3  1  0.30298517  1.10811323  -0.54569480  1.0
  H  H4  1  1.10811323  0.45430520  -0.69701483  1.0
  H  H5  1  0.45430520  0.30298517  0.10811323  1.0
  H  H6  1  1.69701483  -0.10811323  0.54569480  1.0
  H  H7  1  0.89188677  0.54569480  0.69701483  1.0
  H  H8  1  0.66942035  0.80430042  0.31022683  1.0
  H  H9  1  1.19569958  -0.31022683  0.33057965  1.0
  H  H10  1  0.68977317  0.33057965  0.19569958  1.0
  H  H11  1  1.33057965  0.19569958  -0.31022683  1.0
  H  H12  1  0.80430042  1.31022683  -0.33057965  1.0
  H  H13  1  1.31022683  0.66942035  -0.19569958  1.0
  O  O14  1  1.43994537  0.61455785  -0.20912529  1.0
  O  O15  1  1.38544215  0.20912529  -0.43994537  1.0
  O  O16  1  1.20912529  -0.43994537  0.38544215  1.0
  O  O17  1  0.56005463  0.38544215  0.20912529  1.0
  O  O18  1  0.61455785  0.79087471  0.43994537  1.0
  O  O19  1  0.79087471  1.43994537  -0.38544215  1.0
  F  F20  1  0.74406678  0.84444956  0.06655399  1.0
  F  F21  1  1.15555044  -0.06655399  0.25593322  1.0
  F  F22  1  0.93344601  0.25593322  0.15555044  1.0
  F  F23  1  1.25593322  0.15555044  -0.06655399  1.0
  F  F24  1  0.84444956  1.06655399  -0.25593322  1.0
  F  F25  1  1.06655399  0.74406678  -0.15555044  1.0
