# generated using pymatgen
data_NaAg(SO2)2
_symmetry_space_group_name_H-M   'P 1'
_cell_length_a   7.98077008
_cell_length_b   8.44928683
_cell_length_c   8.38802180
_cell_angle_alpha   90.00000000
_cell_angle_beta   93.06563041
_cell_angle_gamma   90.00000000
_symmetry_Int_Tables_number   1
_chemical_formula_structural   NaAg(SO2)2
_chemical_formula_sum   'Na4 Ag4 S8 O16'
_cell_volume   564.81009792
_cell_formula_units_Z   4
loop_
 _symmetry_equiv_pos_site_id
 _symmetry_equiv_pos_as_xyz
  1  'x, y, z'
loop_
 _atom_site_type_symbol
 _atom_site_label
 _atom_site_symmetry_multiplicity
 _atom_site_fract_x
 _atom_site_fract_y
 _atom_site_fract_z
 _atom_site_occupancy
  Ag  Ag0  1  0.41949737  0.56925872  0.87621058  1.0
  Ag  Ag1  1  0.41949737  0.43074128  0.37621058  1.0
  Ag  Ag2  1  0.88876048  0.54926261  0.58137629  1.0
  Ag  Ag3  1  0.88876048  0.45073739  0.08137629  1.0
  O  O4  1  0.04196840  0.90001158  0.89716748  1.0
  O  O5  1  0.04196840  0.09998842  0.39716748  1.0
  O  O6  1  0.18604719  0.79004161  0.14020648  1.0
  O  O7  1  0.18604719  0.20995839  0.64020648  1.0
  O  O8  1  0.35491244  0.84360956  0.57691952  1.0
  O  O9  1  0.35491244  0.15639044  0.07691952  1.0
  O  O10  1  0.56137561  0.80842609  0.37552013  1.0
  O  O11  1  0.56137561  0.19157391  0.87552013  1.0
  O  O12  1  0.65237445  0.90715105  0.64396926  1.0
  O  O13  1  0.65237445  0.09284895  0.14396926  1.0
  O  O14  1  0.88711828  0.73364011  0.08169849  1.0
  O  O15  1  0.88711828  0.26635989  0.58169849  1.0
  O  O16  1  -0.06753361  0.78033347  0.53283231  1.0
  O  O17  1  -0.06753361  0.21966653  0.03283231  1.0
  O  O18  1  0.45551960  0.80169491  0.94902322  1.0
  O  O19  1  0.45551960  0.19830509  0.44902322  1.0
  S  S20  1  0.05318099  0.77010578  0.01376116  1.0
  S  S21  1  0.05318099  0.22989422  0.51376116  1.0
  S  S22  1  0.10359585  0.55738601  0.89044369  1.0
  S  S23  1  0.10359585  0.44261399  0.39044369  1.0
  S  S24  1  0.53203035  0.81103473  0.54784868  1.0
  S  S25  1  0.53203035  0.18896527  0.04784868  1.0
  S  S26  1  0.57664821  0.57044855  0.62483849  1.0
  S  S27  1  0.57664821  0.42955145  0.12483849  1.0
  Na  Na28  1  0.30489310  1.00922617  0.80147972  1.0
  Na  Na29  1  0.30489310  -0.00922617  0.30147972  1.0
  Na  Na30  1  0.81911130  0.92049572  0.30060449  1.0
  Na  Na31  1  0.81911130  0.07950428  0.80060449  1.0
