# generated using pymatgen
data_CdI2
_symmetry_space_group_name_H-M   'P 1'
_cell_length_a   4.32838584
_cell_length_b   4.32838584
_cell_length_c   83.46689805
_cell_angle_alpha   90.00000000
_cell_angle_beta   90.00000000
_cell_angle_gamma   120.00000000
_symmetry_Int_Tables_number   1
_chemical_formula_structural   CdI2
_chemical_formula_sum   'Cd11 I22'
_cell_volume   1354.24375332
_cell_formula_units_Z   11
loop_
 _symmetry_equiv_pos_site_id
 _symmetry_equiv_pos_as_xyz
  1  'x, y, z'
loop_
 _atom_site_type_symbol
 _atom_site_label
 _atom_site_symmetry_multiplicity
 _atom_site_fract_x
 _atom_site_fract_y
 _atom_site_fract_z
 _atom_site_occupancy
  Cd  Cd0  1  0.00000000  0.00000000  0.02274517  1.0
  Cd  Cd1  1  0.00000000  0.00000000  0.11363856  1.0
  Cd  Cd2  1  0.00000000  0.00000000  0.20454808  1.0
  Cd  Cd3  1  0.00000000  0.00000000  0.47728713  1.0
  Cd  Cd4  1  0.00000000  0.00000000  0.65909645  1.0
  Cd  Cd5  1  0.00000000  0.00000000  0.84090402  1.0
  Cd  Cd6  1  0.66666667  0.33333333  0.29547878  1.0
  Cd  Cd7  1  0.66666667  0.33333333  0.38636214  1.0
  Cd  Cd8  1  0.66666667  0.33333333  0.56818215  1.0
  Cd  Cd9  1  0.66666667  0.33333333  0.75000027  1.0
  Cd  Cd10  1  0.66666667  0.33333333  0.93182563  1.0
  I  I11  1  0.00000000  0.00000000  0.31607365  1.0
  I  I12  1  0.00000000  0.00000000  0.40695732  1.0
  I  I13  1  0.00000000  0.00000000  0.58877647  1.0
  I  I14  1  0.00000000  0.00000000  0.77059099  1.0
  I  I15  1  0.00000000  0.00000000  0.95241989  1.0
  I  I16  1  0.66666667  0.33333333  0.04333970  1.0
  I  I17  1  0.66666667  0.33333333  0.13423386  1.0
  I  I18  1  0.66666667  0.33333333  0.22514366  1.0
  I  I19  1  0.66666667  0.33333333  0.49787801  1.0
  I  I20  1  0.66666667  0.33333333  0.67968701  1.0
  I  I21  1  0.66666667  0.33333333  0.86149491  1.0
  I  I22  1  0.33333333  0.66666667  0.00215040  1.0
  I  I23  1  0.33333333  0.66666667  0.09304225  1.0
  I  I24  1  0.33333333  0.66666667  0.18395172  1.0
  I  I25  1  0.33333333  0.66666667  0.27488414  1.0
  I  I26  1  0.33333333  0.66666667  0.36576588  1.0
  I  I27  1  0.33333333  0.66666667  0.45669597  1.0
  I  I28  1  0.33333333  0.66666667  0.54758759  1.0
  I  I29  1  0.33333333  0.66666667  0.63850521  1.0
  I  I30  1  0.33333333  0.66666667  0.72940912  1.0
  I  I31  1  0.33333333  0.66666667  0.82031307  1.0
  I  I32  1  0.33333333  0.66666667  0.91123084  1.0
