# generated using pymatgen
data_Sr3Tl2O6
_symmetry_space_group_name_H-M   'P 1'
_cell_length_a   12.00900826
_cell_length_b   17.18839698
_cell_length_c   3.52685060
_cell_angle_alpha   90.00000000
_cell_angle_beta   90.00000000
_cell_angle_gamma   90.00000000
_symmetry_Int_Tables_number   1
_chemical_formula_structural   Sr3Tl2O6
_chemical_formula_sum   'Sr12 Tl8 O24'
_cell_volume   727.99698725
_cell_formula_units_Z   4
loop_
 _symmetry_equiv_pos_site_id
 _symmetry_equiv_pos_as_xyz
  1  'x, y, z'
loop_
 _atom_site_type_symbol
 _atom_site_label
 _atom_site_symmetry_multiplicity
 _atom_site_fract_x
 _atom_site_fract_y
 _atom_site_fract_z
 _atom_site_occupancy
  Sr  Sr0  1  0.36693334  0.95913326  0.00000000  1.0
  Sr  Sr1  1  0.86693334  0.54086674  0.00000000  1.0
  Sr  Sr2  1  0.63306666  0.04086674  0.00000000  1.0
  Sr  Sr3  1  0.13306666  0.45913326  0.00000000  1.0
  Sr  Sr4  1  0.32336547  0.72535151  0.00000000  1.0
  Sr  Sr5  1  0.82336547  0.77464849  0.00000000  1.0
  Sr  Sr6  1  0.67663453  0.27464849  0.00000000  1.0
  Sr  Sr7  1  0.17663453  0.22535151  0.00000000  1.0
  Sr  Sr8  1  0.09505471  0.85418028  0.00000000  1.0
  Sr  Sr9  1  0.59505471  0.64581972  0.00000000  1.0
  Sr  Sr10  1  0.90494529  0.14581972  0.00000000  1.0
  Sr  Sr11  1  0.40494529  0.35418028  0.00000000  1.0
  Tl  Tl12  1  0.36745823  0.54236932  0.50000000  1.0
  Tl  Tl13  1  0.86745823  0.95763068  0.50000000  1.0
  Tl  Tl14  1  0.63254177  0.45763068  0.50000000  1.0
  Tl  Tl15  1  0.13254177  0.04236932  0.50000000  1.0
  Tl  Tl16  1  0.08946423  0.64763807  0.50000000  1.0
  Tl  Tl17  1  0.58946423  0.85236193  0.50000000  1.0
  Tl  Tl18  1  0.91053577  0.35236193  0.50000000  1.0
  Tl  Tl19  1  0.41053577  0.14763807  0.50000000  1.0
  O  O20  1  0.43757209  0.65385876  0.50000000  1.0
  O  O21  1  0.93757209  0.84614124  0.50000000  1.0
  O  O22  1  0.56242791  0.34614124  0.50000000  1.0
  O  O23  1  0.06242791  0.15385876  0.50000000  1.0
  O  O24  1  0.21283602  0.93429440  0.50000000  1.0
  O  O25  1  0.71283602  0.56570560  0.50000000  1.0
  O  O26  1  0.78716398  0.06570560  0.50000000  1.0
  O  O27  1  0.28716398  0.43429440  0.50000000  1.0
  O  O28  1  0.18487698  0.76176225  0.50000000  1.0
  O  O29  1  0.68487698  0.73823775  0.50000000  1.0
  O  O30  1  0.81512302  0.23823775  0.50000000  1.0
  O  O31  1  0.31512302  0.26176225  0.50000000  1.0
  O  O32  1  0.47102665  0.82999210  0.00000000  1.0
  O  O33  1  0.97102665  0.67000790  0.00000000  1.0
  O  O34  1  0.52897335  0.17000790  0.00000000  1.0
  O  O35  1  0.02897335  0.32999210  0.00000000  1.0
  O  O36  1  0.21172507  0.59660494  0.00000000  1.0
  O  O37  1  0.71172507  0.90339506  0.00000000  1.0
  O  O38  1  0.78827493  0.40339506  0.00000000  1.0
  O  O39  1  0.28827493  0.09660494  0.00000000  1.0
  O  O40  1  0.50000000  0.00000000  0.50000000  1.0
  O  O41  1  0.00000000  0.50000000  0.50000000  1.0
  O  O42  1  0.50000000  0.50000000  0.00000000  1.0
  O  O43  1  0.00000000  0.00000000  0.00000000  1.0
