# generated using pymatgen
data_K2NbAgS2
_symmetry_space_group_name_H-M   'P 1'
_cell_length_a   18.30855419
_cell_length_b   17.51444195
_cell_length_c   6.77974368
_cell_angle_alpha   85.76992157
_cell_angle_beta   72.55787511
_cell_angle_gamma   21.67220332
_symmetry_Int_Tables_number   1
_chemical_formula_structural   K2NbAgS2
_chemical_formula_sum   'K8 Nb4 Ag4 S8'
_cell_volume   623.25239868
_cell_formula_units_Z   4
loop_
 _symmetry_equiv_pos_site_id
 _symmetry_equiv_pos_as_xyz
  1  'x, y, z'
loop_
 _atom_site_type_symbol
 _atom_site_label
 _atom_site_symmetry_multiplicity
 _atom_site_fract_x
 _atom_site_fract_y
 _atom_site_fract_z
 _atom_site_occupancy
  K  K0  1  1.11754578  0.45547510  0.61857427  1.0
  K  K1  1  0.80840485  0.61857427  0.45547510  1.0
  K  K2  1  0.79452490  1.13245422  0.44159515  1.0
  K  K3  1  0.63142573  0.44159515  1.13245422  1.0
  K  K4  1  1.61857427  -0.19159515  0.11754578  1.0
  K  K5  1  1.45547510  0.11754578  -0.19159515  1.0
  K  K6  1  0.44159515  0.63142573  0.79452490  1.0
  K  K7  1  1.13245422  0.79452490  0.63142573  1.0
  Nb  Nb8  1  1.12500000  0.12500000  0.62500000  1.0
  Nb  Nb9  1  1.12500000  0.62500000  0.12500000  1.0
  Nb  Nb10  1  1.12500000  0.12500000  0.12500000  1.0
  Nb  Nb11  1  1.62500000  0.12500000  0.12500000  1.0
  Ag  Ag12  1  0.62500000  0.62500000  1.12500000  1.0
  Ag  Ag13  1  0.62500000  1.12500000  0.62500000  1.0
  Ag  Ag14  1  0.62500000  0.62500000  0.62500000  1.0
  Ag  Ag15  1  1.12500000  0.62500000  0.62500000  1.0
  S  S16  1  1.14371473  -0.02664135  0.62289254  1.0
  S  S17  1  1.26003408  0.62289254  -0.02664135  1.0
  S  S18  1  0.27664135  1.10628527  0.98996592  1.0
  S  S19  1  0.62710746  0.98996592  1.10628527  1.0
  S  S20  1  1.62289254  0.26003408  0.14371473  1.0
  S  S21  1  0.97335865  0.14371473  0.26003408  1.0
  S  S22  1  0.98996592  0.62710746  0.27664135  1.0
  S  S23  1  1.10628527  0.27664135  0.62710746  1.0
