# generated using pymatgen
data_K4Mg(WO4)3
_symmetry_space_group_name_H-M   'P 1'
_cell_length_a   10.09955357
_cell_length_b   10.15137367
_cell_length_c   8.02959571
_cell_angle_alpha   107.11611894
_cell_angle_beta   106.23251503
_cell_angle_gamma   93.56160390
_symmetry_Int_Tables_number   1
_chemical_formula_structural   K4Mg(WO4)3
_chemical_formula_sum   'K8 Mg2 W6 O24'
_cell_volume   745.99317258
_cell_formula_units_Z   2
loop_
 _symmetry_equiv_pos_site_id
 _symmetry_equiv_pos_as_xyz
  1  'x, y, z'
loop_
 _atom_site_type_symbol
 _atom_site_label
 _atom_site_symmetry_multiplicity
 _atom_site_fract_x
 _atom_site_fract_y
 _atom_site_fract_z
 _atom_site_occupancy
  K  K0  1  -0.72387475  -0.25893438  -0.21982081  1.0
  K  K1  1  -0.27612525  -0.74106562  -0.78017919  1.0
  K  K2  1  -0.02603185  -0.96938239  -0.25342307  1.0
  K  K3  1  -0.97396815  -0.03061761  -0.74657693  1.0
  K  K4  1  -0.38310116  -0.06442719  -0.64200370  1.0
  K  K5  1  -0.61689884  -0.93557281  -0.35799630  1.0
  K  K6  1  -0.50000000  -0.50000000  -0.50000000  1.0
  K  K7  1  -0.50000000  -0.50000000  0.00000000  1.0
  Mg  Mg8  1  -0.05276196  -0.37561516  -0.16720222  1.0
  Mg  Mg9  1  -0.94723804  -0.62438484  -0.83279778  1.0
  W  W10  1  -0.31193928  -0.14074482  -0.12295600  1.0
  W  W11  1  -0.68806072  -0.85925518  -0.87704400  1.0
  W  W12  1  -0.24388515  -0.68501085  -0.23063537  1.0
  W  W13  1  -0.75611485  -0.31498915  -0.76936463  1.0
  W  W14  1  -0.11203344  -0.34944461  -0.61168086  1.0
  W  W15  1  -0.88796656  -0.65055539  -0.38831914  1.0
  O  O16  1  -0.12231300  -0.71864271  -0.03866037  1.0
  O  O17  1  -0.87768700  -0.28135729  -0.96133963  1.0
  O  O18  1  -0.14403553  -0.19851237  -0.11531415  1.0
  O  O19  1  -0.85596447  -0.80148763  -0.88468585  1.0
  O  O20  1  -0.44796374  -0.28237291  -0.17311477  1.0
  O  O21  1  -0.55203626  -0.71762709  -0.82688523  1.0
  O  O22  1  -0.41308861  -0.71835929  -0.21094351  1.0
  O  O23  1  -0.58691139  -0.28164071  -0.78905649  1.0
  O  O24  1  -0.23056432  -0.50548260  -0.22972602  1.0
  O  O25  1  -0.76943568  -0.49451740  -0.77027398  1.0
  O  O26  1  -0.35707057  -0.05693885  -0.29416186  1.0
  O  O27  1  -0.64292943  -0.94306115  -0.70583814  1.0
  O  O28  1  -0.00973622  -0.34383903  -0.38408458  1.0
  O  O29  1  -0.99026378  -0.65616097  -0.61591542  1.0
  O  O30  1  -0.23751484  -0.80121923  -0.44310168  1.0
  O  O31  1  -0.76248516  -0.19878077  -0.55689832  1.0
  O  O32  1  -0.12865377  -0.17415240  -0.60680658  1.0
  O  O33  1  -0.87134623  -0.82584760  -0.39319342  1.0
  O  O34  1  -0.28189106  -0.44704936  -0.67293138  1.0
  O  O35  1  -0.71810894  -0.55295064  -0.32706862  1.0
  O  O36  1  -0.02922168  -0.43086500  -0.78043168  1.0
  O  O37  1  -0.97077832  -0.56913500  -0.21956832  1.0
  O  O38  1  -0.29009190  -0.01476160  -0.90358701  1.0
  O  O39  1  -0.70990810  -0.98523840  -0.09641299  1.0
