# generated using pymatgen
data_CsYbZnS3
_symmetry_space_group_name_H-M   'P 1'
_cell_length_a   8.03551222
_cell_length_b   8.03551222
_cell_length_c   10.60177337
_cell_angle_alpha   90.00000000
_cell_angle_beta   90.00000000
_cell_angle_gamma   151.08277202
_symmetry_Int_Tables_number   1
_chemical_formula_structural   CsYbZnS3
_chemical_formula_sum   'Cs2 Yb2 Zn2 S6'
_cell_volume   331.01150124
_cell_formula_units_Z   2
loop_
 _symmetry_equiv_pos_site_id
 _symmetry_equiv_pos_as_xyz
  1  'x, y, z'
loop_
 _atom_site_type_symbol
 _atom_site_label
 _atom_site_symmetry_multiplicity
 _atom_site_fract_x
 _atom_site_fract_y
 _atom_site_fract_z
 _atom_site_occupancy
  Cs  Cs0  1  -0.26000971  0.26000971  0.75000000  1.0
  Cs  Cs1  1  0.26000971  0.73999029  0.25000000  1.0
  S  S2  1  0.05109140  0.94890860  0.75000000  1.0
  S  S3  1  -0.05109140  0.05109140  0.25000000  1.0
  S  S4  1  0.38788734  0.61211266  0.93940340  1.0
  S  S5  1  0.38788734  0.61211266  0.56059660  1.0
  S  S6  1  -0.38788734  0.38788734  0.43940340  1.0
  S  S7  1  -0.38788734  0.38788734  0.06059660  1.0
  Zn  Zn8  1  0.46231658  0.53768342  0.75000000  1.0
  Zn  Zn9  1  -0.46231658  0.46231658  0.25000000  1.0
  Yb  Yb10  1  0.00000000  0.00000000  0.00000000  1.0
  Yb  Yb11  1  0.00000000  0.00000000  0.50000000  1.0
