# generated using pymatgen
data_ZnMoO4
_symmetry_space_group_name_H-M   'P 1'
_cell_length_a   4.73708257
_cell_length_b   5.85571857
_cell_length_c   4.91099580
_cell_angle_alpha   90.00000000
_cell_angle_beta   90.55887915
_cell_angle_gamma   90.00000000
_symmetry_Int_Tables_number   1
_chemical_formula_structural   ZnMoO4
_chemical_formula_sum   'Zn2 Mo2 O8'
_cell_volume   136.21974183
_cell_formula_units_Z   2
loop_
 _symmetry_equiv_pos_site_id
 _symmetry_equiv_pos_as_xyz
  1  'x, y, z'
loop_
 _atom_site_type_symbol
 _atom_site_label
 _atom_site_symmetry_multiplicity
 _atom_site_fract_x
 _atom_site_fract_y
 _atom_site_fract_z
 _atom_site_occupancy
  Zn  Zn0  1  0.00000000  0.80662566  0.25000000  1.0
  Zn  Zn1  1  -0.00000000  0.19337434  0.75000000  1.0
  Mo  Mo2  1  0.50000000  0.31191081  0.25000000  1.0
  Mo  Mo3  1  0.50000000  0.68808919  0.75000000  1.0
  O  O4  1  0.75431840  0.87301214  0.90665264  1.0
  O  O5  1  0.75431840  0.12698786  0.40665264  1.0
  O  O6  1  0.24568160  0.87301214  0.59334736  1.0
  O  O7  1  0.24568160  0.12698786  0.09334736  1.0
  O  O8  1  0.71566449  0.60461068  0.44159429  1.0
  O  O9  1  0.71566449  0.39538932  0.94159429  1.0
  O  O10  1  0.28433551  0.60461068  0.05840571  1.0
  O  O11  1  0.28433551  0.39538932  0.55840571  1.0
