# generated using pymatgen
data_Rb2SeCl6
_symmetry_space_group_name_H-M   'P 1'
_cell_length_a   7.30587558
_cell_length_b   7.30587558
_cell_length_c   7.30587558
_cell_angle_alpha   60.00000000
_cell_angle_beta   60.00000000
_cell_angle_gamma   60.00000000
_symmetry_Int_Tables_number   1
_chemical_formula_structural   Rb2SeCl6
_chemical_formula_sum   'Rb2 Se1 Cl6'
_cell_volume   275.74129923
_cell_formula_units_Z   1
loop_
 _symmetry_equiv_pos_site_id
 _symmetry_equiv_pos_as_xyz
  1  'x, y, z'
loop_
 _atom_site_type_symbol
 _atom_site_label
 _atom_site_symmetry_multiplicity
 _atom_site_fract_x
 _atom_site_fract_y
 _atom_site_fract_z
 _atom_site_occupancy
  Rb  Rb0  1  0.75000000  0.75000000  -0.25000000  1.0
  Rb  Rb1  1  1.25000000  0.25000000  0.25000000  1.0
  Se  Se2  1  0.00000000  0.00000000  0.00000000  1.0
  Cl  Cl3  1  -0.76447146  0.76447146  0.76447146  1.0
  Cl  Cl4  1  -0.23552854  0.23552854  0.76447146  1.0
  Cl  Cl5  1  0.76447146  0.76447146  -0.76447146  1.0
  Cl  Cl6  1  0.23552854  1.23552854  -0.23552854  1.0
  Cl  Cl7  1  0.23552854  -0.23552854  1.23552854  1.0
  Cl  Cl8  1  -0.23552854  0.23552854  0.23552854  1.0
