# generated using pymatgen
data_Sr3Al3Ge2SbO14
_symmetry_space_group_name_H-M   'P 1'
_cell_length_a   8.39377132
_cell_length_b   8.39377132
_cell_length_c   5.11661946
_cell_angle_alpha   90.00000000
_cell_angle_beta   90.00000000
_cell_angle_gamma   120.00000000
_symmetry_Int_Tables_number   1
_chemical_formula_structural   Sr3Al3Ge2SbO14
_chemical_formula_sum   'Sr3 Al3 Ge2 Sb1 O14'
_cell_volume   312.19648996
_cell_formula_units_Z   1
loop_
 _symmetry_equiv_pos_site_id
 _symmetry_equiv_pos_as_xyz
  1  'x, y, z'
loop_
 _atom_site_type_symbol
 _atom_site_label
 _atom_site_symmetry_multiplicity
 _atom_site_fract_x
 _atom_site_fract_y
 _atom_site_fract_z
 _atom_site_occupancy
  Sr  Sr0  1  0.42547772  0.42547772  -0.00000000  1.0
  Sr  Sr1  1  -0.00000000  0.57452228  0.00000000  1.0
  Sr  Sr2  1  0.57452228  -0.00000000  -0.00000000  1.0
  Al  Al3  1  0.75115805  0.75115805  0.50000000  1.0
  Al  Al4  1  -0.00000000  0.24884195  0.50000000  1.0
  Al  Al5  1  0.24884195  0.00000000  0.50000000  1.0
  Ge  Ge6  1  0.33333333  0.66666667  0.52234916  1.0
  Ge  Ge7  1  0.66666667  0.33333333  0.47765084  1.0
  Sb  Sb8  1  0.00000000  0.00000000  0.00000000  1.0
  O  O9  1  0.09625781  0.87570950  0.23768185  1.0
  O  O10  1  0.87570950  0.09625781  0.76231815  1.0
  O  O11  1  0.77945169  0.90374219  0.23768185  1.0
  O  O12  1  0.12429050  0.22054831  0.23768185  1.0
  O  O13  1  0.90374219  0.77945169  0.76231815  1.0
  O  O14  1  0.22054831  0.12429050  0.76231815  1.0
  O  O15  1  0.69791409  0.54061484  0.33276113  1.0
  O  O16  1  0.54061484  0.69791409  0.66723887  1.0
  O  O17  1  0.84270075  0.30208591  0.33276113  1.0
  O  O18  1  0.45938516  0.15729925  0.33276113  1.0
  O  O19  1  0.30208591  0.84270075  0.66723887  1.0
  O  O20  1  0.15729925  0.45938516  0.66723887  1.0
  O  O21  1  0.33333333  0.66666667  0.18339621  1.0
  O  O22  1  0.66666667  0.33333333  0.81660379  1.0
