# generated using pymatgen
data_CsAlF4
_symmetry_space_group_name_H-M   'P 1'
_cell_length_a   9.66515778
_cell_length_b   9.66515778
_cell_length_c   3.77269718
_cell_angle_alpha   90.00000000
_cell_angle_beta   90.00000000
_cell_angle_gamma   120.00000000
_symmetry_Int_Tables_number   1
_chemical_formula_structural   CsAlF4
_chemical_formula_sum   'Cs3 Al3 F12'
_cell_volume   305.21120667
_cell_formula_units_Z   3
loop_
 _symmetry_equiv_pos_site_id
 _symmetry_equiv_pos_as_xyz
  1  'x, y, z'
loop_
 _atom_site_type_symbol
 _atom_site_label
 _atom_site_symmetry_multiplicity
 _atom_site_fract_x
 _atom_site_fract_y
 _atom_site_fract_z
 _atom_site_occupancy
  Cs  Cs0  1  0.43277813  0.43277813  0.50000000  1.0
  Cs  Cs1  1  -0.00000000  0.56722187  0.50000000  1.0
  Cs  Cs2  1  0.56722187  0.00000000  0.50000000  1.0
  Al  Al3  1  0.78409273  0.78409273  0.00000000  1.0
  Al  Al4  1  0.00000000  0.21590727  0.00000000  1.0
  Al  Al5  1  0.21590727  0.00000000  0.00000000  1.0
  F  F6  1  0.26267861  0.84377193  0.00000000  1.0
  F  F7  1  0.84377193  0.26267861  0.00000000  1.0
  F  F8  1  0.58109331  0.73732139  0.00000000  1.0
  F  F9  1  0.15622807  0.41890669  0.00000000  1.0
  F  F10  1  0.73732139  0.58109331  0.00000000  1.0
  F  F11  1  0.41890669  0.15622807  0.00000000  1.0
  F  F12  1  0.79146993  0.79146993  0.50000000  1.0
  F  F13  1  0.00000000  0.20853007  0.50000000  1.0
  F  F14  1  0.20853007  0.00000000  0.50000000  1.0
  F  F15  1  0.15382811  0.15382811  0.00000000  1.0
  F  F16  1  0.00000000  0.84617189  0.00000000  1.0
  F  F17  1  0.84617189  0.00000000  0.00000000  1.0
