# generated using pymatgen
data_RbH3CN2O
_symmetry_space_group_name_H-M   'P 1'
_cell_length_a   7.02960528
_cell_length_b   9.00279873
_cell_length_c   8.10559780
_cell_angle_alpha   90.00000000
_cell_angle_beta   121.93995732
_cell_angle_gamma   90.00000000
_symmetry_Int_Tables_number   1
_chemical_formula_structural   RbH3CN2O
_chemical_formula_sum   'Rb4 H12 C4 N8 O4'
_cell_volume   435.30942507
_cell_formula_units_Z   4
loop_
 _symmetry_equiv_pos_site_id
 _symmetry_equiv_pos_as_xyz
  1  'x, y, z'
loop_
 _atom_site_type_symbol
 _atom_site_label
 _atom_site_symmetry_multiplicity
 _atom_site_fract_x
 _atom_site_fract_y
 _atom_site_fract_z
 _atom_site_occupancy
  Rb  Rb0  1  0.78840830  0.84707914  0.04985643  1.0
  Rb  Rb1  1  0.78840830  0.65292086  0.54985643  1.0
  Rb  Rb2  1  0.21159170  0.15292086  0.95014357  1.0
  Rb  Rb3  1  0.21159170  0.34707914  0.45014357  1.0
  H  H4  1  0.15928321  0.58310946  0.09106365  1.0
  H  H5  1  0.15928321  0.91689054  0.59106365  1.0
  H  H6  1  0.84071679  0.41689054  0.90893635  1.0
  H  H7  1  0.84071679  0.08310946  0.40893635  1.0
  H  H8  1  0.41463513  0.48733828  0.15718190  1.0
  H  H9  1  0.41463513  0.01266172  0.65718190  1.0
  H  H10  1  0.58536487  0.51266172  0.84281810  1.0
  H  H11  1  0.58536487  0.98733828  0.34281810  1.0
  H  H12  1  0.22297826  0.54296461  0.91098468  1.0
  H  H13  1  0.22297826  0.95703539  0.41098468  1.0
  H  H14  1  0.77702174  0.45703539  0.08901532  1.0
  H  H15  1  0.77702174  0.04296461  0.58901532  1.0
  C  C16  1  0.29734268  0.57445389  0.06465119  1.0
  C  C17  1  0.29734268  0.92554611  0.56465119  1.0
  C  C18  1  0.70265732  0.42554611  0.93534881  1.0
  C  C19  1  0.70265732  0.07445389  0.43534881  1.0
  N  N20  1  0.30967744  0.83088828  0.02590389  1.0
  N  N21  1  0.30967744  0.66911172  0.52590389  1.0
  N  N22  1  0.69032256  0.16911172  0.97409611  1.0
  N  N23  1  0.69032256  0.33088828  0.47409611  1.0
  N  N24  1  0.42295775  0.71418532  0.11035984  1.0
  N  N25  1  0.42295775  0.78581468  0.61035984  1.0
  N  N26  1  0.57704225  0.28581468  0.88964016  1.0
  N  N27  1  0.57704225  0.21418532  0.38964016  1.0
  O  O28  1  0.09238390  0.82070535  0.90537665  1.0
  O  O29  1  0.09238390  0.67929465  0.40537665  1.0
  O  O30  1  0.90761610  0.17929465  0.09462335  1.0
  O  O31  1  0.90761610  0.32070535  0.59462335  1.0
