# generated using pymatgen
data_AgBiO3
_symmetry_space_group_name_H-M   'P 1'
_cell_length_a   6.29558511
_cell_length_b   6.29558511
_cell_length_c   6.29558511
_cell_angle_alpha   54.40595308
_cell_angle_beta   54.40595308
_cell_angle_gamma   54.40595308
_symmetry_Int_Tables_number   1
_chemical_formula_structural   AgBiO3
_chemical_formula_sum   'Ag2 Bi2 O6'
_cell_volume   153.41963503
_cell_formula_units_Z   2
loop_
 _symmetry_equiv_pos_site_id
 _symmetry_equiv_pos_as_xyz
  1  'x, y, z'
loop_
 _atom_site_type_symbol
 _atom_site_label
 _atom_site_symmetry_multiplicity
 _atom_site_fract_x
 _atom_site_fract_y
 _atom_site_fract_z
 _atom_site_occupancy
  Ag  Ag0  1  0.36706364  0.36706364  -0.63293636  1.0
  Ag  Ag1  1  0.63293636  0.63293636  -0.36706364  1.0
  Bi  Bi2  1  0.15713744  0.15713744  0.15713744  1.0
  Bi  Bi3  1  0.84286256  -0.15713744  -0.15713744  1.0
  O  O4  1  0.44120152  0.04125563  -0.20768946  1.0
  O  O5  1  1.20768946  -0.44120152  -0.04125563  1.0
  O  O6  1  0.95874437  0.20768946  -0.44120152  1.0
  O  O7  1  0.55879848  -0.04125563  0.20768946  1.0
  O  O8  1  0.79231054  -0.55879848  0.04125563  1.0
  O  O9  1  1.04125563  -0.20768946  -0.55879848  1.0
