# generated using pymatgen
data_Ti5Re24
_symmetry_space_group_name_H-M   'P 1'
_cell_length_a   8.34422777
_cell_length_b   8.34422777
_cell_length_c   8.34422777
_cell_angle_alpha   109.47122063
_cell_angle_beta   109.47122063
_cell_angle_gamma   109.47122063
_symmetry_Int_Tables_number   1
_chemical_formula_structural   Ti5Re24
_chemical_formula_sum   'Ti5 Re24'
_cell_volume   447.23580027
_cell_formula_units_Z   1
loop_
 _symmetry_equiv_pos_site_id
 _symmetry_equiv_pos_as_xyz
  1  'x, y, z'
loop_
 _atom_site_type_symbol
 _atom_site_label
 _atom_site_symmetry_multiplicity
 _atom_site_fract_x
 _atom_site_fract_y
 _atom_site_fract_z
 _atom_site_occupancy
  Ti  Ti0  1  0.36687471  0.36687471  0.36687471  1.0
  Ti  Ti1  1  1.00000000  1.00000000  0.63312529  1.0
  Ti  Ti2  1  1.00000000  0.63312529  1.00000000  1.0
  Ti  Ti3  1  0.63312529  1.00000000  1.00000000  1.0
  Ti  Ti4  1  0.00000000  0.00000000  0.00000000  1.0
  Re  Re5  1  0.81712722  0.62429276  0.62429276  1.0
  Re  Re6  1  0.62429276  0.81712722  0.62429276  1.0
  Re  Re7  1  1.00000000  1.19283447  0.37570724  1.0
  Re  Re8  1  1.19283447  1.00000000  0.37570724  1.0
  Re  Re9  1  0.62429276  0.62429276  0.81712722  1.0
  Re  Re10  1  0.80716553  0.80716553  0.18287278  1.0
  Re  Re11  1  1.00000000  0.37570724  1.19283447  1.0
  Re  Re12  1  0.80716553  0.18287278  0.80716553  1.0
  Re  Re13  1  0.18287278  0.80716553  0.80716553  1.0
  Re  Re14  1  0.37570724  1.00000000  1.19283447  1.0
  Re  Re15  1  1.19283447  0.37570724  1.00000000  1.0
  Re  Re16  1  0.37570724  1.19283447  1.00000000  1.0
  Re  Re17  1  0.28147850  0.59919111  0.59919111  1.0
  Re  Re18  1  0.59919111  0.28147850  0.59919111  1.0
  Re  Re19  1  1.00000000  0.68228739  1.40080889  1.0
  Re  Re20  1  0.68228739  1.00000000  1.40080889  1.0
  Re  Re21  1  0.59919111  0.59919111  0.28147850  1.0
  Re  Re22  1  1.31771261  1.31771261  0.71852150  1.0
  Re  Re23  1  1.00000000  1.40080889  0.68228739  1.0
  Re  Re24  1  1.31771261  0.71852150  1.31771261  1.0
  Re  Re25  1  0.71852150  1.31771261  1.31771261  1.0
  Re  Re26  1  1.40080889  1.00000000  0.68228739  1.0
  Re  Re27  1  0.68228739  1.40080889  1.00000000  1.0
  Re  Re28  1  1.40080889  0.68228739  1.00000000  1.0
