# generated using pymatgen
data_Ag2S
_symmetry_space_group_name_H-M   'P 1'
_cell_length_a   4.41927590
_cell_length_b   5.99489445
_cell_length_c   5.96039136
_cell_angle_alpha   90.00000000
_cell_angle_beta   113.90991062
_cell_angle_gamma   90.00000000
_symmetry_Int_Tables_number   1
_chemical_formula_structural   Ag2S
_chemical_formula_sum   'Ag4 S2'
_cell_volume   144.35804262
_cell_formula_units_Z   2
loop_
 _symmetry_equiv_pos_site_id
 _symmetry_equiv_pos_as_xyz
  1  'x, y, z'
loop_
 _atom_site_type_symbol
 _atom_site_label
 _atom_site_symmetry_multiplicity
 _atom_site_fract_x
 _atom_site_fract_y
 _atom_site_fract_z
 _atom_site_occupancy
  Ag  Ag0  1  0.47278528  0.48948869  0.48756904  1.0
  Ag  Ag1  1  0.52721472  -0.01051131  0.51243096  1.0
  Ag  Ag2  1  0.09080792  0.90397607  -0.01086590  1.0
  Ag  Ag3  1  0.90919208  0.40397607  1.01086590  1.0
  S  S4  1  0.53317063  0.73153524  0.82384724  1.0
  S  S5  1  0.46682937  0.23153524  0.17615276  1.0
