# generated using pymatgen
data_NaLiNiPO4F
_symmetry_space_group_name_H-M   'P 1'
_cell_length_a   6.86864866
_cell_length_b   11.30549506
_cell_length_c   5.08051226
_cell_angle_alpha   90.00000000
_cell_angle_beta   90.26882959
_cell_angle_gamma   90.00000000
_symmetry_Int_Tables_number   1
_chemical_formula_structural   NaLiNiPO4F
_chemical_formula_sum   'Na4 Li4 Ni4 P4 O16 F4'
_cell_volume   394.51508191
_cell_formula_units_Z   4
loop_
 _symmetry_equiv_pos_site_id
 _symmetry_equiv_pos_as_xyz
  1  'x, y, z'
loop_
 _atom_site_type_symbol
 _atom_site_label
 _atom_site_symmetry_multiplicity
 _atom_site_fract_x
 _atom_site_fract_y
 _atom_site_fract_z
 _atom_site_occupancy
  Na  Na0  1  0.48921020  0.33447169  0.74813689  1.0
  Na  Na1  1  0.48921020  0.16552831  0.24813689  1.0
  Na  Na2  1  0.51078980  0.83447169  0.75186311  1.0
  Na  Na3  1  0.51078980  0.66552831  0.25186311  1.0
  O  O4  1  0.19600556  0.57432197  0.42464836  1.0
  O  O5  1  0.19600556  0.92567803  0.92464836  1.0
  O  O6  1  0.80399444  0.07432197  0.07535164  1.0
  O  O7  1  0.80399444  0.42567803  0.57535164  1.0
  O  O8  1  0.21555472  0.45776019  0.85828043  1.0
  O  O9  1  0.21555472  0.04223981  0.35828043  1.0
  O  O10  1  0.78444528  0.95776019  0.64171957  1.0
  O  O11  1  0.78444528  0.54223981  0.14171957  1.0
  O  O12  1  0.54492180  0.12369924  0.73300343  1.0
  O  O13  1  0.54492180  0.37630076  0.23300343  1.0
  O  O14  1  0.45507820  0.62369924  0.76699657  1.0
  O  O15  1  0.45507820  0.87630076  0.26699657  1.0
  O  O16  1  0.10055898  0.67108819  0.86525716  1.0
  O  O17  1  0.10055898  0.82891181  0.36525716  1.0
  O  O18  1  0.89944102  0.17108819  0.63474284  1.0
  O  O19  1  0.89944102  0.32891181  0.13474284  1.0
  Ni  Ni20  1  0.01885923  0.32735174  0.76467904  1.0
  Ni  Ni21  1  0.01885923  0.17264826  0.26467904  1.0
  Ni  Ni22  1  0.98114077  0.82735174  0.73532096  1.0
  Ni  Ni23  1  0.98114077  0.67264826  0.23532096  1.0
  F  F24  1  0.20991007  0.21080771  0.96004498  1.0
  F  F25  1  0.20991007  0.28919229  0.46004498  1.0
  F  F26  1  0.79008993  0.71080771  0.53995502  1.0
  F  F27  1  0.79008993  0.78919229  0.03995502  1.0
  P  P28  1  0.24236652  0.58171107  0.72742521  1.0
  P  P29  1  0.24236652  0.91828893  0.22742521  1.0
  P  P30  1  0.75763348  0.08171107  0.77257479  1.0
  P  P31  1  0.75763348  0.41828893  0.27257479  1.0
  Li  Li32  1  0.25944901  0.07919354  0.73397377  1.0
  Li  Li33  1  0.25944901  0.42080646  0.23397377  1.0
  Li  Li34  1  0.74055099  0.57919354  0.76602623  1.0
  Li  Li35  1  0.74055099  0.92080646  0.26602623  1.0
