# generated using pymatgen
data_Tl3VO4
_symmetry_space_group_name_H-M   'P 1'
_cell_length_a   6.16426036
_cell_length_b   6.16426036
_cell_length_c   6.16426036
_cell_angle_alpha   122.01435269
_cell_angle_beta   93.70506651
_cell_angle_gamma   113.90665424
_symmetry_Int_Tables_number   1
_chemical_formula_structural   Tl3VO4
_chemical_formula_sum   'Tl3 V1 O4'
_cell_volume   169.35887227
_cell_formula_units_Z   1
loop_
 _symmetry_equiv_pos_site_id
 _symmetry_equiv_pos_as_xyz
  1  'x, y, z'
loop_
 _atom_site_type_symbol
 _atom_site_label
 _atom_site_symmetry_multiplicity
 _atom_site_fract_x
 _atom_site_fract_y
 _atom_site_fract_z
 _atom_site_occupancy
  Tl  Tl0  1  0.24819546  0.51504013  0.73315532  1.0
  Tl  Tl1  1  0.78188481  0.51504013  1.26684468  1.0
  Tl  Tl2  1  0.56280366  0.06280366  0.50000000  1.0
  V  V3  1  0.01156893  0.01156893  -0.00000000  1.0
  O  O4  1  0.98780891  0.15598355  0.83182535  1.0
  O  O5  1  0.32415820  0.15598355  0.16817465  1.0
  O  O6  1  0.86729002  0.62452731  0.75723729  1.0
  O  O7  1  0.86729002  1.11005272  1.24276271  1.0
