# generated using pymatgen
data_EuAu
_symmetry_space_group_name_H-M   'P 1'
_cell_length_a   7.64741950
_cell_length_b   4.71569476
_cell_length_c   6.00227308
_cell_angle_alpha   90.00000000
_cell_angle_beta   90.00000000
_cell_angle_gamma   90.00000000
_symmetry_Int_Tables_number   1
_chemical_formula_structural   EuAu
_chemical_formula_sum   'Eu4 Au4'
_cell_volume   216.45935031
_cell_formula_units_Z   4
loop_
 _symmetry_equiv_pos_site_id
 _symmetry_equiv_pos_as_xyz
  1  'x, y, z'
loop_
 _atom_site_type_symbol
 _atom_site_label
 _atom_site_symmetry_multiplicity
 _atom_site_fract_x
 _atom_site_fract_y
 _atom_site_fract_z
 _atom_site_occupancy
  Eu  Eu0  1  0.31858191  0.75000000  0.13856663  1.0
  Eu  Eu1  1  0.81858191  0.75000000  0.36143337  1.0
  Eu  Eu2  1  0.68141809  0.25000000  0.86143337  1.0
  Eu  Eu3  1  0.18141809  0.25000000  0.63856663  1.0
  Au  Au4  1  0.45919241  0.75000000  0.64423239  1.0
  Au  Au5  1  0.95919241  0.75000000  0.85576761  1.0
  Au  Au6  1  0.54080759  0.25000000  0.35576761  1.0
  Au  Au7  1  0.04080759  0.25000000  0.14423239  1.0
