# generated using pymatgen
data_KSc(SO4)2
_symmetry_space_group_name_H-M   'P 1'
_cell_length_a   5.09577727
_cell_length_b   5.09577727
_cell_length_c   8.08447297
_cell_angle_alpha   87.47879550
_cell_angle_beta   92.52120450
_cell_angle_gamma   116.91529778
_symmetry_Int_Tables_number   1
_chemical_formula_structural   KSc(SO4)2
_chemical_formula_sum   'K1 Sc1 S2 O8'
_cell_volume   186.93935057
_cell_formula_units_Z   1
loop_
 _symmetry_equiv_pos_site_id
 _symmetry_equiv_pos_as_xyz
  1  'x, y, z'
loop_
 _atom_site_type_symbol
 _atom_site_label
 _atom_site_symmetry_multiplicity
 _atom_site_fract_x
 _atom_site_fract_y
 _atom_site_fract_z
 _atom_site_occupancy
  K  K0  1  0.00000000  -0.00000000  0.50000000  1.0
  Sc  Sc1  1  -0.00000000  -0.00000000  0.00000000  1.0
  S  S2  1  0.64033235  -0.64033235  0.78766399  1.0
  S  S3  1  0.35966765  -0.35966765  0.21233601  1.0
  O  O4  1  1.31499761  0.22854283  0.81722571  1.0
  O  O5  1  0.77145717  -0.31499761  0.81722571  1.0
  O  O6  1  1.22854283  0.31499761  0.18277429  1.0
  O  O7  1  0.68500239  -0.22854283  0.18277429  1.0
  O  O8  1  0.77225970  -0.77225970  0.91414299  1.0
  O  O9  1  0.22774030  -0.22774030  0.08585701  1.0
  O  O10  1  0.69003950  -0.69003950  0.61778140  1.0
  O  O11  1  0.30996050  -0.30996050  0.38221860  1.0
