# generated using pymatgen
data_YCoSn
_symmetry_space_group_name_H-M   'P 1'
_cell_length_a   7.28026604
_cell_length_b   4.57120339
_cell_length_c   7.34575502
_cell_angle_alpha   90.00000000
_cell_angle_beta   90.00000000
_cell_angle_gamma   90.00000000
_symmetry_Int_Tables_number   1
_chemical_formula_structural   YCoSn
_chemical_formula_sum   'Y4 Co4 Sn4'
_cell_volume   244.46361790
_cell_formula_units_Z   4
loop_
 _symmetry_equiv_pos_site_id
 _symmetry_equiv_pos_as_xyz
  1  'x, y, z'
loop_
 _atom_site_type_symbol
 _atom_site_label
 _atom_site_symmetry_multiplicity
 _atom_site_fract_x
 _atom_site_fract_y
 _atom_site_fract_z
 _atom_site_occupancy
  Y  Y0  1  1.02222975  0.75000000  0.70091599  1.0
  Y  Y1  1  0.52222975  0.75000000  0.79908401  1.0
  Y  Y2  1  -0.02222975  0.25000000  0.29908401  1.0
  Y  Y3  1  0.47777025  0.25000000  0.20091599  1.0
  Co  Co4  1  0.84557384  0.75000000  0.05950106  1.0
  Co  Co5  1  0.34557384  0.75000000  0.44049894  1.0
  Co  Co6  1  0.15442616  0.25000000  0.94049894  1.0
  Co  Co7  1  0.65442616  0.25000000  0.55950106  1.0
  Sn  Sn8  1  0.70298812  0.75000000  0.39194726  1.0
  Sn  Sn9  1  0.20298812  0.75000000  0.10805274  1.0
  Sn  Sn10  1  0.29701188  0.25000000  0.60805274  1.0
  Sn  Sn11  1  0.79701188  0.25000000  0.89194726  1.0
