# generated using pymatgen
data_KZrCuSe3
_symmetry_space_group_name_H-M   'P 1'
_cell_length_a   7.73398438
_cell_length_b   7.73398438
_cell_length_c   10.22458198
_cell_angle_alpha   90.00000000
_cell_angle_beta   90.00000000
_cell_angle_gamma   150.74353278
_symmetry_Int_Tables_number   1
_chemical_formula_structural   KZrCuSe3
_chemical_formula_sum   'K2 Zr2 Cu2 Se6'
_cell_volume   298.89042810
_cell_formula_units_Z   2
loop_
 _symmetry_equiv_pos_site_id
 _symmetry_equiv_pos_as_xyz
  1  'x, y, z'
loop_
 _atom_site_type_symbol
 _atom_site_label
 _atom_site_symmetry_multiplicity
 _atom_site_fract_x
 _atom_site_fract_y
 _atom_site_fract_z
 _atom_site_occupancy
  K  K0  1  -0.25025039  0.25025039  0.75000000  1.0
  K  K1  1  0.25025039  0.74974961  0.25000000  1.0
  Zr  Zr2  1  0.00000000  0.00000000  0.00000000  1.0
  Zr  Zr3  1  0.00000000  0.00000000  0.50000000  1.0
  Cu  Cu4  1  0.46894823  0.53105177  0.75000000  1.0
  Cu  Cu5  1  -0.46894823  0.46894823  0.25000000  1.0
  Se  Se6  1  0.37820778  0.62179222  0.94614510  1.0
  Se  Se7  1  0.37820778  0.62179222  0.55385490  1.0
  Se  Se8  1  -0.37820778  0.37820778  0.44614510  1.0
  Se  Se9  1  -0.37820778  0.37820778  0.05385490  1.0
  Se  Se10  1  0.06842281  0.93157719  0.75000000  1.0
  Se  Se11  1  -0.06842281  0.06842281  0.25000000  1.0
