# generated using pymatgen
data_CaCO3
_symmetry_space_group_name_H-M   'P 1'
_cell_length_a   6.66245820
_cell_length_b   8.49520578
_cell_length_c   4.53763357
_cell_angle_alpha   90.00000000
_cell_angle_beta   90.00000000
_cell_angle_gamma   90.00000000
_symmetry_Int_Tables_number   1
_chemical_formula_structural   CaCO3
_chemical_formula_sum   'Ca4 C4 O12'
_cell_volume   256.82531098
_cell_formula_units_Z   4
loop_
 _symmetry_equiv_pos_site_id
 _symmetry_equiv_pos_as_xyz
  1  'x, y, z'
loop_
 _atom_site_type_symbol
 _atom_site_label
 _atom_site_symmetry_multiplicity
 _atom_site_fract_x
 _atom_site_fract_y
 _atom_site_fract_z
 _atom_site_occupancy
  Ca  Ca0  1  0.50000000  0.00000000  0.50000000  1.0
  Ca  Ca1  1  0.50000000  0.50000000  0.50000000  1.0
  Ca  Ca2  1  0.00000000  0.00000000  0.00000000  1.0
  Ca  Ca3  1  0.00000000  0.50000000  0.00000000  1.0
  C  C4  1  0.36542646  0.75000000  0.97697519  1.0
  C  C5  1  0.86542646  0.75000000  0.52302481  1.0
  C  C6  1  0.63457354  0.25000000  0.02302481  1.0
  C  C7  1  0.13457354  0.25000000  0.47697519  1.0
  O  O8  1  0.31908324  0.88317410  0.10095916  1.0
  O  O9  1  0.31908324  0.61682590  0.10095916  1.0
  O  O10  1  0.81908324  0.88317410  0.39904084  1.0
  O  O11  1  0.81908324  0.61682590  0.39904084  1.0
  O  O12  1  0.68091676  0.38317410  -0.10095916  1.0
  O  O13  1  0.68091676  0.11682590  -0.10095916  1.0
  O  O14  1  0.18091676  0.38317410  0.60095916  1.0
  O  O15  1  0.18091676  0.11682590  0.60095916  1.0
  O  O16  1  0.45680359  0.75000000  0.72647638  1.0
  O  O17  1  0.95680359  0.75000000  0.77352362  1.0
  O  O18  1  0.54319641  0.25000000  0.27352362  1.0
  O  O19  1  0.04319641  0.25000000  0.22647638  1.0
