# generated using pymatgen
data_NaNb6O15F
_symmetry_space_group_name_H-M   'P 1'
_cell_length_a   9.08060832
_cell_length_b   9.08060832
_cell_length_c   3.91916910
_cell_angle_alpha   90.00000000
_cell_angle_beta   90.00000000
_cell_angle_gamma   109.90741901
_symmetry_Int_Tables_number   1
_chemical_formula_structural   NaNb6O15F
_chemical_formula_sum   'Na1 Nb6 O15 F1'
_cell_volume   303.85366613
_cell_formula_units_Z   1
loop_
 _symmetry_equiv_pos_site_id
 _symmetry_equiv_pos_as_xyz
  1  'x, y, z'
loop_
 _atom_site_type_symbol
 _atom_site_label
 _atom_site_symmetry_multiplicity
 _atom_site_fract_x
 _atom_site_fract_y
 _atom_site_fract_z
 _atom_site_occupancy
  Na  Na0  1  0.40289408  0.59710592  0.50000000  1.0
  Nb  Nb1  1  0.62688213  1.00590617  0.00000000  1.0
  Nb  Nb2  1  -0.00590617  0.37311787  0.00000000  1.0
  Nb  Nb3  1  -0.62289800  1.26327559  0.00000000  1.0
  Nb  Nb4  1  -0.26327559  1.62289800  0.00000000  1.0
  Nb  Nb5  1  -0.00199936  0.00199936  0.00000000  1.0
  Nb  Nb6  1  0.21623076  0.78376924  0.00000000  1.0
  O  O7  1  -0.36126559  1.00978377  0.50000000  1.0
  O  O8  1  -0.00978377  1.36126559  0.50000000  1.0
  O  O9  1  -0.63655014  1.28302147  0.50000000  1.0
  O  O10  1  -0.28302147  1.63655014  0.50000000  1.0
  O  O11  1  -0.77390311  1.01075495  0.00000000  1.0
  O  O12  1  -0.01075495  1.77390311  0.00000000  1.0
  O  O13  1  0.44440019  0.82156787  0.00000000  1.0
  O  O14  1  0.17843213  0.55559981  0.00000000  1.0
  O  O15  1  0.76765575  0.85740045  0.00000000  1.0
  O  O16  1  0.14259955  0.23234425  0.00000000  1.0
  O  O17  1  -0.46890979  1.16618666  0.00000000  1.0
  O  O18  1  -0.16618666  1.46890979  0.00000000  1.0
  O  O19  1  0.22077372  0.77922628  0.50000000  1.0
  O  O20  1  -0.48646410  1.48646410  0.00000000  1.0
  O  O21  1  -0.13786410  1.13786410  0.00000000  1.0
  F  F22  1  -0.00108550  0.00108550  0.50000000  1.0
