# generated using pymatgen
data_ZnF2
_symmetry_space_group_name_H-M   'P 1'
_cell_length_a   4.75327133
_cell_length_b   5.77780414
_cell_length_c   5.23609557
_cell_angle_alpha   90.00000000
_cell_angle_beta   90.00000000
_cell_angle_gamma   90.00000000
_symmetry_Int_Tables_number   1
_chemical_formula_structural   ZnF2
_chemical_formula_sum   'Zn4 F8'
_cell_volume   143.80135756
_cell_formula_units_Z   4
loop_
 _symmetry_equiv_pos_site_id
 _symmetry_equiv_pos_as_xyz
  1  'x, y, z'
loop_
 _atom_site_type_symbol
 _atom_site_label
 _atom_site_symmetry_multiplicity
 _atom_site_fract_x
 _atom_site_fract_y
 _atom_site_fract_z
 _atom_site_occupancy
  Zn  Zn0  1  0.50000000  0.16115512  0.25000000  1.0
  Zn  Zn1  1  0.50000000  0.83884488  0.75000000  1.0
  Zn  Zn2  1  0.00000000  0.66115512  0.25000000  1.0
  Zn  Zn3  1  0.00000000  0.33884488  0.75000000  1.0
  F  F4  1  0.22974167  0.38589707  0.08066976  1.0
  F  F5  1  0.22974167  0.61410293  0.58066976  1.0
  F  F6  1  0.72974167  0.88589707  0.41933024  1.0
  F  F7  1  0.72974167  0.11410293  0.91933024  1.0
  F  F8  1  0.77025833  0.38589707  0.41933024  1.0
  F  F9  1  0.77025833  0.61410293  0.91933024  1.0
  F  F10  1  0.27025833  0.88589707  0.08066976  1.0
  F  F11  1  0.27025833  0.11410293  0.58066976  1.0
