# generated using pymatgen
data_MoC
_symmetry_space_group_name_H-M   'P 1'
_cell_length_a   5.10849084
_cell_length_b   5.84339894
_cell_length_c   5.72763699
_cell_angle_alpha   90.00000000
_cell_angle_beta   90.00000000
_cell_angle_gamma   90.00000000
_symmetry_Int_Tables_number   1
_chemical_formula_structural   MoC
_chemical_formula_sum   'Mo8 C8'
_cell_volume   170.97540513
_cell_formula_units_Z   8
loop_
 _symmetry_equiv_pos_site_id
 _symmetry_equiv_pos_as_xyz
  1  'x, y, z'
loop_
 _atom_site_type_symbol
 _atom_site_label
 _atom_site_symmetry_multiplicity
 _atom_site_fract_x
 _atom_site_fract_y
 _atom_site_fract_z
 _atom_site_occupancy
  Mo  Mo0  1  0.25000007  0.99999960  0.10610574  1.0
  Mo  Mo1  1  0.24999993  0.50000040  0.60610574  1.0
  Mo  Mo2  1  0.75000007  0.50000040  0.89389426  1.0
  Mo  Mo3  1  0.74999993  0.99999960  0.39389426  1.0
  Mo  Mo4  1  0.74999993  0.00000040  0.89389426  1.0
  Mo  Mo5  1  0.75000007  0.49999960  0.39389426  1.0
  Mo  Mo6  1  0.24999993  0.49999960  0.10610574  1.0
  Mo  Mo7  1  0.25000007  0.00000040  0.60610574  1.0
  C  C8  1  0.59417323  0.74999951  0.13676443  1.0
  C  C9  1  -0.09417323  0.75000049  0.63676443  1.0
  C  C10  1  0.09417323  0.75000049  0.86323557  1.0
  C  C11  1  0.40582677  0.74999951  0.36323557  1.0
  C  C12  1  0.40582677  0.25000049  0.86323557  1.0
  C  C13  1  0.09417323  0.24999951  0.36323557  1.0
  C  C14  1  -0.09417323  0.24999951  0.13676443  1.0
  C  C15  1  0.59417323  0.25000049  0.63676443  1.0
