# generated using pymatgen
data_Fe3O2
_symmetry_space_group_name_H-M   'P 1'
_cell_length_a   7.88307275
_cell_length_b   7.88307275
_cell_length_c   7.88307275
_cell_angle_alpha   19.02027979
_cell_angle_beta   19.02027979
_cell_angle_gamma   19.02027979
_symmetry_Int_Tables_number   1
_chemical_formula_structural   Fe3O2
_chemical_formula_sum   'Fe3 O2'
_cell_volume   45.47394771
_cell_formula_units_Z   1
loop_
 _symmetry_equiv_pos_site_id
 _symmetry_equiv_pos_as_xyz
  1  'x, y, z'
loop_
 _atom_site_type_symbol
 _atom_site_label
 _atom_site_symmetry_multiplicity
 _atom_site_fract_x
 _atom_site_fract_y
 _atom_site_fract_z
 _atom_site_occupancy
  Fe  Fe0  1  0.29586223  0.29586223  0.29586223  1.0
  Fe  Fe1  1  0.70413777  0.70413777  -0.29586223  1.0
  Fe  Fe2  1  0.50000000  0.50000000  -0.50000000  1.0
  O  O3  1  0.88531713  -0.11468287  -0.11468287  1.0
  O  O4  1  1.11468287  0.11468287  0.11468287  1.0
