# generated using pymatgen
data_SrAl4O7
_symmetry_space_group_name_H-M   'P 1'
_cell_length_a   8.21285272
_cell_length_b   8.21285272
_cell_length_c   4.84857345
_cell_angle_alpha   90.00000000
_cell_angle_beta   90.00000000
_cell_angle_gamma   68.61955428
_symmetry_Int_Tables_number   1
_chemical_formula_structural   SrAl4O7
_chemical_formula_sum   'Sr2 Al8 O14'
_cell_volume   304.53402564
_cell_formula_units_Z   2
loop_
 _symmetry_equiv_pos_site_id
 _symmetry_equiv_pos_as_xyz
  1  'x, y, z'
loop_
 _atom_site_type_symbol
 _atom_site_label
 _atom_site_symmetry_multiplicity
 _atom_site_fract_x
 _atom_site_fract_y
 _atom_site_fract_z
 _atom_site_occupancy
  Sr  Sr0  1  -0.00000000  1.00000000  0.50000000  1.0
  Sr  Sr1  1  -0.50000000  0.50000000  0.50000000  1.0
  Al  Al2  1  0.13052717  1.63052717  0.05589328  1.0
  Al  Al3  1  -0.36947283  1.13052717  0.94410672  1.0
  Al  Al4  1  -0.13052717  1.36947283  0.94410672  1.0
  Al  Al5  1  -0.63052717  0.86947283  0.05589328  1.0
  Al  Al6  1  0.00000000  0.50000000  0.50000000  1.0
  Al  Al7  1  -0.50000000  1.00000000  0.50000000  1.0
  Al  Al8  1  -0.25000000  0.75000000  0.00000000  1.0
  Al  Al9  1  0.25000000  0.25000000  0.00000000  1.0
  O  O10  1  -0.07305152  0.71250218  0.23263578  1.0
  O  O11  1  -0.57305152  1.21250218  0.76736422  1.0
  O  O12  1  -0.21250218  0.57305152  0.76736422  1.0
  O  O13  1  -0.71250218  1.07305152  0.23263578  1.0
  O  O14  1  0.21250218  0.42694848  0.23263578  1.0
  O  O15  1  -0.28749782  0.92694848  0.76736422  1.0
  O  O16  1  0.07305152  0.28749782  0.76736422  1.0
  O  O17  1  -0.42694848  0.78749782  0.23263578  1.0
  O  O18  1  -0.38356614  1.11643386  0.29885000  1.0
  O  O19  1  0.11643386  1.61643386  0.70115000  1.0
  O  O20  1  -0.61643386  0.88356614  0.70115000  1.0
  O  O21  1  -0.11643386  1.38356614  0.29885000  1.0
  O  O22  1  -0.75000000  0.75000000  0.17731791  1.0
  O  O23  1  -0.25000000  1.25000000  0.82268209  1.0
