# generated using pymatgen
data_Ba3SnO
_symmetry_space_group_name_H-M   'P 1'
_cell_length_a   7.78502604
_cell_length_b   7.78502604
_cell_length_c   7.78502604
_cell_angle_alpha   90.08819897
_cell_angle_beta   120.00650123
_cell_angle_gamma   119.89171465
_symmetry_Int_Tables_number   1
_chemical_formula_structural   Ba3SnO
_chemical_formula_sum   'Ba6 Sn2 O2'
_cell_volume   333.88588185
_cell_formula_units_Z   2
loop_
 _symmetry_equiv_pos_site_id
 _symmetry_equiv_pos_as_xyz
  1  'x, y, z'
loop_
 _atom_site_type_symbol
 _atom_site_label
 _atom_site_symmetry_multiplicity
 _atom_site_fract_x
 _atom_site_fract_y
 _atom_site_fract_z
 _atom_site_occupancy
  Ba  Ba0  1  0.00000000  0.73220615  0.73220615  1.0
  Ba  Ba1  1  0.50000000  0.73220615  1.23220615  1.0
  Ba  Ba2  1  0.50000000  0.26779385  0.76779385  1.0
  Ba  Ba3  1  0.00000000  0.26779385  0.26779385  1.0
  Ba  Ba4  1  1.03522289  0.78522289  1.25000000  1.0
  Ba  Ba5  1  0.96477711  1.21477711  0.75000000  1.0
  Sn  Sn6  1  1.50128577  1.25128577  1.25000000  1.0
  Sn  Sn7  1  0.49871423  0.74871423  0.75000000  1.0
  O  O8  1  1.00000000  1.00000000  0.50000000  1.0
  O  O9  1  1.00000000  0.50000000  1.00000000  1.0
