# generated using pymatgen
data_Tm(AsO)2
_symmetry_space_group_name_H-M   'P 1'
_cell_length_a   8.30277617
_cell_length_b   8.30277617
_cell_length_c   8.30277617
_cell_angle_alpha   105.34984046
_cell_angle_beta   105.34984046
_cell_angle_gamma   118.07169252
_symmetry_Int_Tables_number   1
_chemical_formula_structural   Tm(AsO)2
_chemical_formula_sum   'Tm4 As8 O8'
_cell_volume   433.05621812
_cell_formula_units_Z   4
loop_
 _symmetry_equiv_pos_site_id
 _symmetry_equiv_pos_as_xyz
  1  'x, y, z'
loop_
 _atom_site_type_symbol
 _atom_site_label
 _atom_site_symmetry_multiplicity
 _atom_site_fract_x
 _atom_site_fract_y
 _atom_site_fract_z
 _atom_site_occupancy
  Tm  Tm0  1  1.37500000  1.12500000  1.25000000  1.0
  Tm  Tm1  1  0.87500000  1.12500000  0.75000000  1.0
  Tm  Tm2  1  0.87500000  1.12500000  0.25000000  1.0
  Tm  Tm3  1  0.87500000  1.62500000  0.75000000  1.0
  As  As4  1  1.17795528  1.48967840  0.68827688  1.0
  As  As5  1  0.94859848  0.76032160  0.18827688  1.0
  As  As6  1  0.80140152  0.48967840  0.31172312  1.0
  As  As7  1  1.57204472  0.76032160  0.81172312  1.0
  As  As8  1  0.51032160  0.19859848  0.68827688  1.0
  As  As9  1  1.23967840  1.42795528  1.18827688  1.0
  As  As10  1  0.51032160  0.82204472  0.31172312  1.0
  As  As11  1  1.23967840  1.05140152  0.81172312  1.0
  O  O12  1  1.19272578  1.36249920  0.83022658  1.0
  O  O13  1  1.21772737  0.88750080  1.33022658  1.0
  O  O14  1  0.53227263  0.36249920  0.16977342  1.0
  O  O15  1  0.55727422  0.88750080  0.66977342  1.0
  O  O16  1  0.63750080  0.46772737  0.83022658  1.0
  O  O17  1  1.11249920  1.44272578  0.33022658  1.0
  O  O18  1  0.63750080  0.80727422  0.16977342  1.0
  O  O19  1  1.11249920  1.78227263  0.66977342  1.0
