# generated using pymatgen
data_LiEu2CI3N2
_symmetry_space_group_name_H-M   'P 1'
_cell_length_a   10.75949494
_cell_length_b   10.75949494
_cell_length_c   10.75949494
_cell_angle_alpha   60.00000000
_cell_angle_beta   60.00000000
_cell_angle_gamma   60.00000000
_symmetry_Int_Tables_number   1
_chemical_formula_structural   LiEu2CI3N2
_chemical_formula_sum   'Li4 Eu8 C4 I12 N8'
_cell_volume   880.76623789
_cell_formula_units_Z   4
loop_
 _symmetry_equiv_pos_site_id
 _symmetry_equiv_pos_as_xyz
  1  'x, y, z'
loop_
 _atom_site_type_symbol
 _atom_site_label
 _atom_site_symmetry_multiplicity
 _atom_site_fract_x
 _atom_site_fract_y
 _atom_site_fract_z
 _atom_site_occupancy
  Li  Li0  1  0.62500000  1.12500000  0.12500000  1.0
  Li  Li1  1  0.12500000  1.62500000  0.12500000  1.0
  Li  Li2  1  0.12500000  0.12500000  1.62500000  1.0
  Li  Li3  1  0.12500000  0.12500000  0.12500000  1.0
  Eu  Eu4  1  -0.22589877  0.40863292  0.40863292  1.0
  Eu  Eu5  1  0.40863292  -0.22589877  0.40863292  1.0
  Eu  Eu6  1  0.40863292  1.40863292  -0.22589877  1.0
  Eu  Eu7  1  0.40863292  1.40863292  0.40863292  1.0
  Eu  Eu8  1  0.47589877  0.84136708  -0.15863292  1.0
  Eu  Eu9  1  0.84136708  0.47589877  0.84136708  1.0
  Eu  Eu10  1  0.84136708  0.84136708  -0.52410123  1.0
  Eu  Eu11  1  0.84136708  0.84136708  0.84136708  1.0
  C  C12  1  1.12500000  0.62500000  0.62500000  1.0
  C  C13  1  0.62500000  1.12500000  -0.37500000  1.0
  C  C14  1  -0.37500000  0.62500000  1.12500000  1.0
  C  C15  1  -0.37500000  0.62500000  0.62500000  1.0
  I  I16  1  0.80074471  0.80074471  -0.80074471  1.0
  I  I17  1  0.19925529  1.19925529  -0.19925529  1.0
  I  I18  1  0.80074471  -0.80074471  0.80074471  1.0
  I  I19  1  0.19925529  -0.19925529  0.19925529  1.0
  I  I20  1  -0.80074471  0.80074471  0.80074471  1.0
  I  I21  1  -0.19925529  0.19925529  0.19925529  1.0
  I  I22  1  0.44925529  1.44925529  0.05074471  1.0
  I  I23  1  0.05074471  0.05074471  0.44925529  1.0
  I  I24  1  0.44925529  1.05074471  0.44925529  1.0
  I  I25  1  0.05074471  1.44925529  0.05074471  1.0
  I  I26  1  0.05074471  1.44925529  0.44925529  1.0
  I  I27  1  0.44925529  1.05074471  0.05074471  1.0
  N  N28  1  1.26606112  0.57797963  -0.42202037  1.0
  N  N29  1  0.57797963  1.26606112  0.57797963  1.0
  N  N30  1  -0.42202037  0.57797963  1.26606112  1.0
  N  N31  1  0.57797963  -0.42202037  0.57797963  1.0
  N  N32  1  0.98393888  0.67202037  0.67202037  1.0
  N  N33  1  0.67202037  0.98393888  0.67202037  1.0
  N  N34  1  0.67202037  0.67202037  0.98393888  1.0
  N  N35  1  0.67202037  0.67202037  0.67202037  1.0
