# generated using pymatgen
data_Zr2Zn25Co
_symmetry_space_group_name_H-M   'P 1'
_cell_length_a   11.76997117
_cell_length_b   11.76997117
_cell_length_c   11.76997117
_cell_angle_alpha   60.00000000
_cell_angle_beta   60.00000000
_cell_angle_gamma   60.00000000
_symmetry_Int_Tables_number   1
_chemical_formula_structural   Zr2Zn25Co
_chemical_formula_sum   'Zr4 Zn50 Co2'
_cell_volume   1152.95192714
_cell_formula_units_Z   2
loop_
 _symmetry_equiv_pos_site_id
 _symmetry_equiv_pos_as_xyz
  1  'x, y, z'
loop_
 _atom_site_type_symbol
 _atom_site_label
 _atom_site_symmetry_multiplicity
 _atom_site_fract_x
 _atom_site_fract_y
 _atom_site_fract_z
 _atom_site_occupancy
  Zr  Zr0  1  0.62500000  -0.37500000  1.12500000  1.0
  Zr  Zr1  1  0.62500000  0.12500000  0.62500000  1.0
  Zr  Zr2  1  0.62500000  -0.37500000  0.62500000  1.0
  Zr  Zr3  1  1.12500000  -0.37500000  0.62500000  1.0
  Zn  Zn4  1  0.78138924  -0.21861076  1.01083441  1.0
  Zn  Zn5  1  -0.57361288  0.78138924  1.01083441  1.0
  Zn  Zn6  1  -0.57361288  1.01083441  0.78138924  1.0
  Zn  Zn7  1  0.78138924  0.01083441  0.78138924  1.0
  Zn  Zn8  1  0.46861076  0.46861076  -0.17638712  1.0
  Zn  Zn9  1  0.46861076  -0.17638712  0.46861076  1.0
  Zn  Zn10  1  0.23916559  -0.17638712  0.46861076  1.0
  Zn  Zn11  1  0.23916559  0.46861076  -0.17638712  1.0
  Zn  Zn12  1  0.78138924  -0.57361288  1.01083441  1.0
  Zn  Zn13  1  -0.21861076  1.01083441  0.42638712  1.0
  Zn  Zn14  1  -0.17638712  0.46861076  0.46861076  1.0
  Zn  Zn15  1  0.23916559  0.46861076  0.46861076  1.0
  Zn  Zn16  1  1.01083441  -0.57361288  0.78138924  1.0
  Zn  Zn17  1  0.01083441  0.78138924  0.42638712  1.0
  Zn  Zn18  1  -0.21861076  0.78138924  0.42638712  1.0
  Zn  Zn19  1  0.78138924  -0.57361288  0.78138924  1.0
  Zn  Zn20  1  -0.17638712  0.23916559  0.46861076  1.0
  Zn  Zn21  1  0.46861076  0.23916559  0.46861076  1.0
  Zn  Zn22  1  0.46861076  0.46861076  0.23916559  1.0
  Zn  Zn23  1  -0.17638712  0.46861076  0.23916559  1.0
  Zn  Zn24  1  1.01083441  -0.21861076  0.78138924  1.0
  Zn  Zn25  1  -0.57361288  0.78138924  0.78138924  1.0
  Zn  Zn26  1  0.46861076  0.23916559  -0.17638712  1.0
  Zn  Zn27  1  0.46861076  -0.17638712  0.23916559  1.0
  Zn  Zn28  1  1.00821954  -0.77841975  0.76198067  1.0
  Zn  Zn29  1  0.00821954  0.76198067  0.22158025  1.0
  Zn  Zn30  1  0.02841975  0.24178046  0.24178046  1.0
  Zn  Zn31  1  0.48801933  0.24178046  0.24178046  1.0
  Zn  Zn32  1  -0.77841975  1.00821954  0.76198067  1.0
  Zn  Zn33  1  1.00821954  0.00821954  0.76198067  1.0
  Zn  Zn34  1  1.00821954  -0.23801933  1.00821954  1.0
  Zn  Zn35  1  -0.77841975  0.76198067  1.00821954  1.0
  Zn  Zn36  1  0.24178046  0.02841975  0.24178046  1.0
  Zn  Zn37  1  0.24178046  0.24178046  0.02841975  1.0
  Zn  Zn38  1  0.48801933  0.24178046  0.02841975  1.0
  Zn  Zn39  1  0.48801933  0.02841975  0.24178046  1.0
  Zn  Zn40  1  0.76198067  0.00821954  1.00821954  1.0
  Zn  Zn41  1  -0.77841975  1.00821954  1.00821954  1.0
  Zn  Zn42  1  0.24178046  0.48801933  0.02841975  1.0
  Zn  Zn43  1  0.24178046  0.02841975  0.48801933  1.0
  Zn  Zn44  1  -0.23801933  1.00821954  0.22158025  1.0
  Zn  Zn45  1  0.76198067  -0.77841975  1.00821954  1.0
  Zn  Zn46  1  1.00821954  -0.77841975  1.00821954  1.0
  Zn  Zn47  1  0.00821954  1.00821954  0.22158025  1.0
  Zn  Zn48  1  0.24178046  0.48801933  0.24178046  1.0
  Zn  Zn49  1  0.02841975  0.48801933  0.24178046  1.0
  Zn  Zn50  1  0.02841975  0.24178046  0.48801933  1.0
  Zn  Zn51  1  0.24178046  0.24178046  0.48801933  1.0
  Zn  Zn52  1  0.50000000  0.50000000  -0.50000000  1.0
  Zn  Zn53  1  0.75000000  -0.25000000  0.75000000  1.0
  Co  Co54  1  -0.00000000  1.00000000  0.00000000  1.0
  Co  Co55  1  0.25000000  0.25000000  0.25000000  1.0
