# generated using pymatgen
data_Sr(IO3)2
_symmetry_space_group_name_H-M   'P 1'
_cell_length_a   7.16015403
_cell_length_b   13.41725874
_cell_length_c   7.17303555
_cell_angle_alpha   83.63340163
_cell_angle_beta   62.83042043
_cell_angle_gamma   83.91338418
_symmetry_Int_Tables_number   1
_chemical_formula_structural   Sr(IO3)2
_chemical_formula_sum   'Sr4 I8 O24'
_cell_volume   608.09564991
_cell_formula_units_Z   4
loop_
 _symmetry_equiv_pos_site_id
 _symmetry_equiv_pos_as_xyz
  1  'x, y, z'
loop_
 _atom_site_type_symbol
 _atom_site_label
 _atom_site_symmetry_multiplicity
 _atom_site_fract_x
 _atom_site_fract_y
 _atom_site_fract_z
 _atom_site_occupancy
  Sr  Sr0  1  -0.97953669  -0.86465660  -0.86679299  1.0
  Sr  Sr1  1  -0.02046331  -0.13534340  -0.13320701  1.0
  Sr  Sr2  1  -0.94743002  -0.62641425  -0.31536985  1.0
  Sr  Sr3  1  -0.05256998  -0.37358575  -0.68463015  1.0
  I  I4  1  -0.67927515  -0.88879322  -0.51622293  1.0
  I  I5  1  -0.32072485  -0.11120678  -0.48377707  1.0
  I  I6  1  -0.69617755  -0.13681477  -0.82489062  1.0
  I  I7  1  -0.30382245  -0.86318523  -0.17510938  1.0
  I  I8  1  -0.65817316  -0.62005315  -0.95677808  1.0
  I  I9  1  -0.34182684  -0.37994685  -0.04322192  1.0
  I  I10  1  -0.32995389  -0.61512923  -0.60911103  1.0
  I  I11  1  -0.67004611  -0.38487077  -0.39088897  1.0
  O  O12  1  -0.93842085  -0.85958586  -0.52906649  1.0
  O  O13  1  -0.06157915  -0.14041414  -0.47093351  1.0
  O  O14  1  -0.90410193  -0.66806061  -0.94617582  1.0
  O  O15  1  -0.09589807  -0.33193939  -0.05382418  1.0
  O  O16  1  -0.86009429  -0.43659288  -0.46358474  1.0
  O  O17  1  -0.13990571  -0.56340712  -0.53641526  1.0
  O  O18  1  -0.83784541  -0.04606447  -0.94362458  1.0
  O  O19  1  -0.16215459  -0.95393553  -0.05637542  1.0
  O  O20  1  -0.76642152  -0.25654498  -0.88495907  1.0
  O  O21  1  -0.23357848  -0.74345502  -0.11504093  1.0
  O  O22  1  -0.75383424  -0.82501946  -0.26971044  1.0
  O  O23  1  -0.24616576  -0.17498054  -0.73028956  1.0
  O  O24  1  -0.73611147  -0.48139011  -0.94569289  1.0
  O  O25  1  -0.26388853  -0.51860989  -0.05430711  1.0
  O  O26  1  -0.67588627  -0.65764721  -0.68736164  1.0
  O  O27  1  -0.32411373  -0.34235279  -0.31263836  1.0
  O  O28  1  -0.57883317  -0.86519881  -0.95030068  1.0
  O  O29  1  -0.42116683  -0.13480119  -0.04969932  1.0
  O  O30  1  -0.58145945  -0.58962017  -0.35618799  1.0
  O  O31  1  -0.41854055  -0.41037983  -0.64381201  1.0
  O  O32  1  -0.29249589  -0.75456535  -0.56937464  1.0
  O  O33  1  -0.70750411  -0.24543465  -0.43062536  1.0
  O  O34  1  -0.29382747  -0.97119338  -0.55548541  1.0
  O  O35  1  -0.70617253  -0.02880662  -0.44451459  1.0
