# generated using pymatgen
data_CaSeO4
_symmetry_space_group_name_H-M   'P 1'
_cell_length_a   8.73726681
_cell_length_b   6.80131729
_cell_length_c   8.54859316
_cell_angle_alpha   90.00000000
_cell_angle_beta   133.09673070
_cell_angle_gamma   90.00000000
_symmetry_Int_Tables_number   1
_chemical_formula_structural   CaSeO4
_chemical_formula_sum   'Ca4 Se4 O16'
_cell_volume   370.94187460
_cell_formula_units_Z   4
loop_
 _symmetry_equiv_pos_site_id
 _symmetry_equiv_pos_as_xyz
  1  'x, y, z'
loop_
 _atom_site_type_symbol
 _atom_site_label
 _atom_site_symmetry_multiplicity
 _atom_site_fract_x
 _atom_site_fract_y
 _atom_site_fract_z
 _atom_site_occupancy
  Ca  Ca0  1  1.14128655  0.86103698  0.42580963  1.0
  Ca  Ca1  1  -0.14128655  0.36103698  0.07419037  1.0
  Ca  Ca2  1  -0.14128655  0.13896302  0.57419037  1.0
  Ca  Ca3  1  1.14128655  0.63896302  0.92580963  1.0
  O  O4  1  0.17263720  0.51126021  0.41071423  1.0
  O  O5  1  0.82736280  0.01126021  0.08928577  1.0
  O  O6  1  0.82736280  0.48873979  0.58928577  1.0
  O  O7  1  0.17263720  0.98873979  0.91071423  1.0
  O  O8  1  0.10977454  0.17904549  0.52557098  1.0
  O  O9  1  0.89022546  0.67904549  -0.02557098  1.0
  O  O10  1  0.89022547  0.82095451  0.47442902  1.0
  O  O11  1  0.10977454  0.32095451  1.02557098  1.0
  O  O12  1  0.48744427  0.80376914  0.74839307  1.0
  O  O13  1  0.51255573  0.30376914  0.75160693  1.0
  O  O14  1  0.51255573  0.19623086  0.25160693  1.0
  O  O15  1  0.48744427  0.69623086  0.24839307  1.0
  O  O16  1  0.26119061  0.49862341  0.78428335  1.0
  O  O17  1  0.73880939  0.99862341  0.71571665  1.0
  O  O18  1  0.73880939  0.50137659  0.21571665  1.0
  O  O19  1  0.26119061  0.00137659  0.28428335  1.0
  Se  Se20  1  0.27333697  0.37539275  0.62730849  1.0
  Se  Se21  1  0.72666303  0.87539275  0.87269151  1.0
  Se  Se22  1  0.72666303  0.62460725  0.37269151  1.0
  Se  Se23  1  0.27333697  0.12460725  0.12730849  1.0
