# generated using pymatgen
data_Sr4Sb2O
_symmetry_space_group_name_H-M   'P 1'
_cell_length_a   9.38083067
_cell_length_b   9.38083067
_cell_length_c   9.38083067
_cell_angle_alpha   149.12824308
_cell_angle_beta   149.12824308
_cell_angle_gamma   44.22257301
_symmetry_Int_Tables_number   1
_chemical_formula_structural   Sr4Sb2O
_chemical_formula_sum   'Sr4 Sb2 O1'
_cell_volume   216.71692679
_cell_formula_units_Z   1
loop_
 _symmetry_equiv_pos_site_id
 _symmetry_equiv_pos_as_xyz
  1  'x, y, z'
loop_
 _atom_site_type_symbol
 _atom_site_label
 _atom_site_symmetry_multiplicity
 _atom_site_fract_x
 _atom_site_fract_y
 _atom_site_fract_z
 _atom_site_occupancy
  Sr  Sr0  1  0.83121103  0.83121103  1.00000000  1.0
  Sr  Sr1  1  0.16878897  0.16878897  -0.00000000  1.0
  Sr  Sr2  1  0.50000000  0.00000000  0.50000000  1.0
  Sr  Sr3  1  0.00000000  0.50000000  0.50000000  1.0
  Sb  Sb4  1  0.63808940  0.63808940  1.00000000  1.0
  Sb  Sb5  1  0.36191060  0.36191060  -0.00000000  1.0
  O  O6  1  0.00000000  0.00000000  0.00000000  1.0
