# generated using pymatgen
data_KY(SeO3)2
_symmetry_space_group_name_H-M   'P 1'
_cell_length_a   13.70061847
_cell_length_b   5.79207394
_cell_length_c   8.92238493
_cell_angle_alpha   90.00000000
_cell_angle_beta   90.00000000
_cell_angle_gamma   90.00000000
_symmetry_Int_Tables_number   1
_chemical_formula_structural   KY(SeO3)2
_chemical_formula_sum   'K4 Y4 Se8 O24'
_cell_volume   708.03581249
_cell_formula_units_Z   4
loop_
 _symmetry_equiv_pos_site_id
 _symmetry_equiv_pos_as_xyz
  1  'x, y, z'
loop_
 _atom_site_type_symbol
 _atom_site_label
 _atom_site_symmetry_multiplicity
 _atom_site_fract_x
 _atom_site_fract_y
 _atom_site_fract_z
 _atom_site_occupancy
  K  K0  1  0.11997395  0.75000000  0.98928260  1.0
  K  K1  1  0.61997395  0.75000000  0.51071740  1.0
  K  K2  1  0.88002605  0.25000000  0.01071740  1.0
  K  K3  1  0.38002605  0.25000000  0.48928260  1.0
  Y  Y4  1  0.39732078  0.75000000  0.81048003  1.0
  Y  Y5  1  0.89732078  0.75000000  0.68951997  1.0
  Y  Y6  1  0.60267922  0.25000000  0.18951997  1.0
  Y  Y7  1  0.10267922  0.25000000  0.31048003  1.0
  Se  Se8  1  0.43563432  0.75000000  0.21746425  1.0
  Se  Se9  1  0.93563432  0.75000000  0.28253575  1.0
  Se  Se10  1  0.56436568  0.25000000  0.78253575  1.0
  Se  Se11  1  0.06436568  0.25000000  0.71746425  1.0
  Se  Se12  1  0.20715627  0.75000000  0.51054040  1.0
  Se  Se13  1  0.70715627  0.75000000  0.98945960  1.0
  Se  Se14  1  0.79284373  0.25000000  0.48945960  1.0
  Se  Se15  1  0.29284373  0.25000000  0.01054040  1.0
  O  O16  1  0.49987073  0.48037735  0.70980618  1.0
  O  O17  1  0.49987073  0.01962265  0.70980618  1.0
  O  O18  1  -0.00012927  0.48037735  0.79019382  1.0
  O  O19  1  -0.00012927  0.01962265  0.79019382  1.0
  O  O20  1  0.50012927  0.98037735  0.29019382  1.0
  O  O21  1  0.50012927  0.51962265  0.29019382  1.0
  O  O22  1  1.00012927  0.98037735  0.20980618  1.0
  O  O23  1  1.00012927  0.51962265  0.20980618  1.0
  O  O24  1  0.28755612  0.48296141  0.89110385  1.0
  O  O25  1  0.28755612  0.01703859  0.89110385  1.0
  O  O26  1  0.78755612  0.48296141  0.60889615  1.0
  O  O27  1  0.78755612  0.01703859  0.60889615  1.0
  O  O28  1  0.71244388  0.98296141  0.10889615  1.0
  O  O29  1  0.71244388  0.51703859  0.10889615  1.0
  O  O30  1  0.21244388  0.98296141  0.39110385  1.0
  O  O31  1  0.21244388  0.51703859  0.39110385  1.0
  O  O32  1  0.47095211  0.75000000  0.03379923  1.0
  O  O33  1  0.97095211  0.75000000  0.46620077  1.0
  O  O34  1  0.52904789  0.25000000  0.96620077  1.0
  O  O35  1  0.02904789  0.25000000  0.53379923  1.0
  O  O36  1  0.32438761  0.75000000  0.58089632  1.0
  O  O37  1  0.82438761  0.75000000  0.91910368  1.0
  O  O38  1  0.67561239  0.25000000  0.41910368  1.0
  O  O39  1  0.17561239  0.25000000  0.08089632  1.0
