# generated using pymatgen
data_Lu5GaS9
_symmetry_space_group_name_H-M   'P 1'
_cell_length_a   7.79283964
_cell_length_b   10.22546792
_cell_length_c   10.09722063
_cell_angle_alpha   106.33117926
_cell_angle_beta   101.90169640
_cell_angle_gamma   100.32653929
_symmetry_Int_Tables_number   1
_chemical_formula_structural   Lu5GaS9
_chemical_formula_sum   'Lu10 Ga2 S18'
_cell_volume   731.02662199
_cell_formula_units_Z   2
loop_
 _symmetry_equiv_pos_site_id
 _symmetry_equiv_pos_as_xyz
  1  'x, y, z'
loop_
 _atom_site_type_symbol
 _atom_site_label
 _atom_site_symmetry_multiplicity
 _atom_site_fract_x
 _atom_site_fract_y
 _atom_site_fract_z
 _atom_site_occupancy
  Lu  Lu0  1  -0.13899819  -0.73328991  -0.34261562  1.0
  Lu  Lu1  1  -0.86100181  -0.26671009  -0.65738438  1.0
  Lu  Lu2  1  -0.19022276  -0.62129415  -0.67797997  1.0
  Lu  Lu3  1  -0.80977724  -0.37870585  -0.32202003  1.0
  Lu  Lu4  1  -0.25139932  -0.48969483  -0.01034779  1.0
  Lu  Lu5  1  -0.74860068  -0.51030517  -0.98965221  1.0
  Lu  Lu6  1  -0.36255967  -0.27719314  -0.64596609  1.0
  Lu  Lu7  1  -0.63744033  -0.72280686  -0.35403391  1.0
  Lu  Lu8  1  -0.46545808  -0.04271129  -0.31189438  1.0
  Lu  Lu9  1  -0.53454192  -0.95728871  -0.68810562  1.0
  Ga  Ga10  1  -0.12259665  -0.02475450  -0.90161180  1.0
  Ga  Ga11  1  -0.87740335  -0.97524550  -0.09838820  1.0
  S  S12  1  -0.01951428  -0.46145503  -0.16625221  1.0
  S  S13  1  -0.98048572  -0.53854497  -0.83374779  1.0
  S  S14  1  -0.08189406  -0.34595103  -0.50788138  1.0
  S  S15  1  -0.91810594  -0.65404897  -0.49211862  1.0
  S  S16  1  -0.15130676  -0.22124984  -0.82287569  1.0
  S  S17  1  -0.84869324  -0.77875016  -0.17712431  1.0
  S  S18  1  -0.17554047  -0.10014914  -0.14971291  1.0
  S  S19  1  -0.82445953  -0.89985086  -0.85028709  1.0
  S  S20  1  -0.26761455  -0.00609984  -0.49596618  1.0
  S  S21  1  -0.73238545  -0.99390016  -0.50403382  1.0
  S  S22  1  -0.36050860  -0.76356735  -0.17891188  1.0
  S  S23  1  -0.63949140  -0.23643265  -0.82108812  1.0
  S  S24  1  -0.54907349  -0.45788408  -0.16792044  1.0
  S  S25  1  -0.45092651  -0.54211592  -0.83207956  1.0
  S  S26  1  -0.58706754  -0.31372592  -0.48139664  1.0
  S  S27  1  -0.41293246  -0.68627408  -0.51860336  1.0
  S  S28  1  -0.68776206  -0.11045816  -0.16409280  1.0
  S  S29  1  -0.31223794  -0.88954184  -0.83590720  1.0
