# generated using pymatgen
data_B2CO2
_symmetry_space_group_name_H-M   'P 1'
_cell_length_a   5.04078728
_cell_length_b   5.04078728
_cell_length_c   5.39236572
_cell_angle_alpha   89.18413635
_cell_angle_beta   90.81586365
_cell_angle_gamma   151.44545241
_symmetry_Int_Tables_number   1
_chemical_formula_structural   B2CO2
_chemical_formula_sum   'B4 C2 O4'
_cell_volume   65.48664492
_cell_formula_units_Z   2
loop_
 _symmetry_equiv_pos_site_id
 _symmetry_equiv_pos_as_xyz
  1  'x, y, z'
loop_
 _atom_site_type_symbol
 _atom_site_label
 _atom_site_symmetry_multiplicity
 _atom_site_fract_x
 _atom_site_fract_y
 _atom_site_fract_z
 _atom_site_occupancy
  B  B0  1  0.11063073  -0.11063073  0.75734905  1.0
  B  B1  1  0.88936927  0.11063073  0.24265095  1.0
  B  B2  1  0.37030022  -0.37030022  0.79779514  1.0
  B  B3  1  0.62969978  0.37030022  0.20220486  1.0
  C  C4  1  0.75035701  0.24964299  0.41423357  1.0
  C  C5  1  0.24964299  -0.24964299  0.58576643  1.0
  O  O6  1  0.86126762  0.13873238  0.95271372  1.0
  O  O7  1  0.13873238  -0.13873238  0.04728628  1.0
  O  O8  1  0.52632526  0.47367474  0.72475390  1.0
  O  O9  1  0.47367474  -0.47367474  0.27524610  1.0
