# generated using pymatgen
data_Y2Al4FeGe2
_symmetry_space_group_name_H-M   'P 1'
_cell_length_a   10.27974097
_cell_length_b   10.27974097
_cell_length_c   10.27974097
_cell_angle_alpha   156.80110152
_cell_angle_beta   156.80110152
_cell_angle_gamma   33.04045276
_symmetry_Int_Tables_number   1
_chemical_formula_structural   Y2Al4FeGe2
_chemical_formula_sum   'Y2 Al4 Fe1 Ge2'
_cell_volume   168.41707647
_cell_formula_units_Z   1
loop_
 _symmetry_equiv_pos_site_id
 _symmetry_equiv_pos_as_xyz
  1  'x, y, z'
loop_
 _atom_site_type_symbol
 _atom_site_label
 _atom_site_symmetry_multiplicity
 _atom_site_fract_x
 _atom_site_fract_y
 _atom_site_fract_z
 _atom_site_occupancy
  Y  Y0  1  0.81695095  0.81695095  1.00000000  1.0
  Y  Y1  1  0.18304905  0.18304905  -0.00000000  1.0
  Al  Al2  1  0.43474407  0.93474407  0.50000000  1.0
  Al  Al3  1  0.56525593  0.06525593  0.50000000  1.0
  Al  Al4  1  0.93474407  0.43474407  0.50000000  1.0
  Al  Al5  1  0.06525593  0.56525593  0.50000000  1.0
  Fe  Fe6  1  0.00000000  0.00000000  0.00000000  1.0
  Ge  Ge7  1  0.66472627  0.66472627  1.00000000  1.0
  Ge  Ge8  1  0.33527373  0.33527373  -0.00000000  1.0
