# generated using pymatgen
data_InH12N3(OF2)3
_symmetry_space_group_name_H-M   'P 1'
_cell_length_a   7.87389367
_cell_length_b   7.87389367
_cell_length_c   7.87389367
_cell_angle_alpha   96.32705828
_cell_angle_beta   96.32705828
_cell_angle_gamma   96.32705828
_symmetry_Int_Tables_number   1
_chemical_formula_structural   InH12N3(OF2)3
_chemical_formula_sum   'In2 H24 N6 O6 F12'
_cell_volume   478.52558227
_cell_formula_units_Z   2
loop_
 _symmetry_equiv_pos_site_id
 _symmetry_equiv_pos_as_xyz
  1  'x, y, z'
loop_
 _atom_site_type_symbol
 _atom_site_label
 _atom_site_symmetry_multiplicity
 _atom_site_fract_x
 _atom_site_fract_y
 _atom_site_fract_z
 _atom_site_occupancy
  In  In0  1  -0.00052969  -0.00052969  -0.00052969  1.0
  In  In1  1  0.49947031  0.49947031  0.49947031  1.0
  H  H2  1  1.35630145  -0.06157168  0.25356774  1.0
  H  H3  1  0.85630145  0.75356774  0.43842832  1.0
  H  H4  1  1.43842832  0.85630145  -0.24643226  1.0
  H  H5  1  0.93842832  0.25356774  0.35630145  1.0
  H  H6  1  0.75356774  1.43842832  -0.14369855  1.0
  H  H7  1  1.25356774  0.35630145  -0.06157168  1.0
  H  H8  1  1.07546073  0.28460687  -0.45782554  1.0
  H  H9  1  0.57546073  1.04217446  -0.21539313  1.0
  H  H10  1  0.78460687  0.57546073  0.04217446  1.0
  H  H11  1  1.28460687  -0.45782554  0.07546073  1.0
  H  H12  1  1.04217446  0.78460687  -0.42453927  1.0
  H  H13  1  0.54217446  0.07546073  0.28460687  1.0
  H  H14  1  1.04463199  -0.16329340  0.36713470  1.0
  H  H15  1  1.54463199  -0.13286530  0.33670660  1.0
  H  H16  1  1.33670660  0.54463199  -0.13286530  1.0
  H  H17  1  0.83670660  0.36713470  0.04463199  1.0
  H  H18  1  0.86713470  0.33670660  0.54463199  1.0
  H  H19  1  1.36713470  0.04463199  -0.16329340  1.0
  H  H20  1  0.85853322  1.08366553  -0.36496992  1.0
  H  H21  1  0.35853322  1.13503008  -0.41633447  1.0
  H  H22  1  0.58366553  0.35853322  0.13503008  1.0
  H  H23  1  1.08366553  0.63503008  -0.14146678  1.0
  H  H24  1  1.13503008  0.58366553  -0.64146678  1.0
  H  H25  1  0.63503008  0.85853322  0.08366553  1.0
  N  N26  1  1.49058350  -0.05336807  0.25244840  1.0
  N  N27  1  0.99058350  0.75244840  0.44663193  1.0
  N  N28  1  1.44663193  0.99058350  -0.24755160  1.0
  N  N29  1  0.94663193  0.25244840  0.49058350  1.0
  N  N30  1  0.75244840  1.44663193  -0.00941650  1.0
  N  N31  1  1.25244840  0.49058350  -0.05336807  1.0
  O  O32  1  0.88693422  1.08087478  -0.48796310  1.0
  O  O33  1  0.38693422  1.01203690  -0.41912522  1.0
  O  O34  1  0.58087478  0.38693422  0.01203690  1.0
  O  O35  1  1.08087478  0.51203690  -0.11306578  1.0
  O  O36  1  1.01203690  0.58087478  -0.61306578  1.0
  O  O37  1  0.51203690  0.88693422  0.08087478  1.0
  F  F38  1  1.14841201  -0.06875988  0.21553868  1.0
  F  F39  1  0.64841201  0.71553868  0.43124012  1.0
  F  F40  1  1.43124012  0.64841201  -0.28446132  1.0
  F  F41  1  0.93124012  0.21553868  0.14841201  1.0
  F  F42  1  0.71553868  1.43124012  -0.35158799  1.0
  F  F43  1  1.21553868  0.14841201  -0.06875988  1.0
  F  F44  1  1.31039708  0.31316876  -0.43197840  1.0
  F  F45  1  0.81039708  1.06802160  -0.18683124  1.0
  F  F46  1  0.81316876  0.81039708  0.06802160  1.0
  F  F47  1  1.31316876  -0.43197840  0.31039708  1.0
  F  F48  1  1.06802160  0.81316876  -0.18960292  1.0
  F  F49  1  0.56802160  0.31039708  0.31316876  1.0
