# generated using pymatgen
data_SrMnO3
_symmetry_space_group_name_H-M   'P 1'
_cell_length_a   5.47528963
_cell_length_b   5.47528963
_cell_length_c   13.52140662
_cell_angle_alpha   90.00000000
_cell_angle_beta   90.00000000
_cell_angle_gamma   120.00000000
_symmetry_Int_Tables_number   1
_chemical_formula_structural   SrMnO3
_chemical_formula_sum   'Sr6 Mn6 O18'
_cell_volume   351.04815833
_cell_formula_units_Z   6
loop_
 _symmetry_equiv_pos_site_id
 _symmetry_equiv_pos_as_xyz
  1  'x, y, z'
loop_
 _atom_site_type_symbol
 _atom_site_label
 _atom_site_symmetry_multiplicity
 _atom_site_fract_x
 _atom_site_fract_y
 _atom_site_fract_z
 _atom_site_occupancy
  O  O0  1  0.51491980  0.48508020  0.25000000  1.0
  O  O1  1  0.51491980  0.02983960  0.25000000  1.0
  O  O2  1  0.48508020  0.51491980  0.75000000  1.0
  O  O3  1  0.48508020  0.97016040  0.75000000  1.0
  O  O4  1  0.97016040  0.48508020  0.25000000  1.0
  O  O5  1  0.02983960  0.51491980  0.75000000  1.0
  O  O6  1  0.16429249  0.83570751  0.91808778  1.0
  O  O7  1  0.16429249  0.83570751  0.58191222  1.0
  O  O8  1  0.16429249  0.32858498  0.91808778  1.0
  O  O9  1  0.16429249  0.32858498  0.58191222  1.0
  O  O10  1  0.83570751  0.16429249  0.41808778  1.0
  O  O11  1  0.83570751  0.16429249  0.08191222  1.0
  O  O12  1  0.83570751  0.67141502  0.41808778  1.0
  O  O13  1  0.83570751  0.67141502  0.08191222  1.0
  O  O14  1  0.67141502  0.83570751  0.91808778  1.0
  O  O15  1  0.67141502  0.83570751  0.58191222  1.0
  O  O16  1  0.32858498  0.16429249  0.41808778  1.0
  O  O17  1  0.32858498  0.16429249  0.08191222  1.0
  Sr  Sr18  1  0.33333333  0.66666667  0.41105115  1.0
  Sr  Sr19  1  0.33333333  0.66666667  0.08894885  1.0
  Sr  Sr20  1  0.66666667  0.33333333  0.91105115  1.0
  Sr  Sr21  1  0.66666667  0.33333333  0.58894885  1.0
  Sr  Sr22  1  0.00000000  0.00000000  0.25000000  1.0
  Sr  Sr23  1  0.00000000  0.00000000  0.75000000  1.0
  Mn  Mn24  1  0.00000000  0.00000000  0.50000000  1.0
  Mn  Mn25  1  0.00000000  0.00000000  0.00000000  1.0
  Mn  Mn26  1  0.33333333  0.66666667  0.84375625  1.0
  Mn  Mn27  1  0.33333333  0.66666667  0.65624375  1.0
  Mn  Mn28  1  0.66666667  0.33333333  0.34375625  1.0
  Mn  Mn29  1  0.66666667  0.33333333  0.15624375  1.0
