# generated using pymatgen
data_K2Mn3V2CO11
_symmetry_space_group_name_H-M   'P 1'
_cell_length_a   5.22724525
_cell_length_b   5.22724525
_cell_length_c   22.34273383
_cell_angle_alpha   90.00000000
_cell_angle_beta   90.00000000
_cell_angle_gamma   120.00000000
_symmetry_Int_Tables_number   1
_chemical_formula_structural   K2Mn3V2CO11
_chemical_formula_sum   'K4 Mn6 V4 C2 O22'
_cell_volume   528.70412248
_cell_formula_units_Z   2
loop_
 _symmetry_equiv_pos_site_id
 _symmetry_equiv_pos_as_xyz
  1  'x, y, z'
loop_
 _atom_site_type_symbol
 _atom_site_label
 _atom_site_symmetry_multiplicity
 _atom_site_fract_x
 _atom_site_fract_y
 _atom_site_fract_z
 _atom_site_occupancy
  K  K0  1  0.33333333  0.66666667  0.34192285  1.0
  K  K1  1  0.33333333  0.66666667  0.15807715  1.0
  K  K2  1  0.66666667  0.33333333  0.84192285  1.0
  K  K3  1  0.66666667  0.33333333  0.65807715  1.0
  Mn  Mn4  1  0.33333333  0.66666667  0.99535261  1.0
  Mn  Mn5  1  0.33333333  0.66666667  0.50464739  1.0
  Mn  Mn6  1  0.66666667  0.33333333  0.49535261  1.0
  Mn  Mn7  1  0.66666667  0.33333333  0.00464739  1.0
  Mn  Mn8  1  0.00000000  0.00000000  0.25000000  1.0
  Mn  Mn9  1  0.00000000  0.00000000  0.75000000  1.0
  V  V10  1  0.00000000  0.00000000  0.42055903  1.0
  V  V11  1  0.00000000  0.00000000  0.07944097  1.0
  V  V12  1  0.00000000  0.00000000  0.92055903  1.0
  V  V13  1  0.00000000  0.00000000  0.57944097  1.0
  C  C14  1  0.66666667  0.33333333  0.25000000  1.0
  C  C15  1  0.33333333  0.66666667  0.75000000  1.0
  O  O16  1  0.31338682  0.99144980  0.44624037  1.0
  O  O17  1  0.31338682  0.99144980  0.05375963  1.0
  O  O18  1  0.99144980  0.67806298  0.94624037  1.0
  O  O19  1  0.99144980  0.67806298  0.55375963  1.0
  O  O20  1  0.67806298  0.68661318  0.44624037  1.0
  O  O21  1  0.67806298  0.68661318  0.05375963  1.0
  O  O22  1  0.00855020  0.32193702  0.44624037  1.0
  O  O23  1  0.00855020  0.32193702  0.05375963  1.0
  O  O24  1  0.68661318  0.00855020  0.94624037  1.0
  O  O25  1  0.68661318  0.00855020  0.55375963  1.0
  O  O26  1  0.32193702  0.31338682  0.94624037  1.0
  O  O27  1  0.32193702  0.31338682  0.55375963  1.0
  O  O28  1  0.63349124  0.56309597  0.25000000  1.0
  O  O29  1  0.56309597  0.92960473  0.75000000  1.0
  O  O30  1  0.92960473  0.36650876  0.25000000  1.0
  O  O31  1  0.43690403  0.07039527  0.25000000  1.0
  O  O32  1  0.36650876  0.43690403  0.75000000  1.0
  O  O33  1  0.07039527  0.63349124  0.75000000  1.0
  O  O34  1  0.00000000  0.00000000  0.34419635  1.0
  O  O35  1  0.00000000  0.00000000  0.15580365  1.0
  O  O36  1  0.00000000  0.00000000  0.84419635  1.0
  O  O37  1  0.00000000  0.00000000  0.65580365  1.0
