# generated using pymatgen
data_La5SiGe2
_symmetry_space_group_name_H-M   'P 1'
_cell_length_a   9.02454181
_cell_length_b   9.02454181
_cell_length_c   9.02454181
_cell_angle_alpha   126.61068376
_cell_angle_beta   126.61068376
_cell_angle_gamma   78.88673625
_symmetry_Int_Tables_number   1
_chemical_formula_structural   La5SiGe2
_chemical_formula_sum   'La10 Si2 Ge4'
_cell_volume   458.18784414
_cell_formula_units_Z   2
loop_
 _symmetry_equiv_pos_site_id
 _symmetry_equiv_pos_as_xyz
  1  'x, y, z'
loop_
 _atom_site_type_symbol
 _atom_site_label
 _atom_site_symmetry_multiplicity
 _atom_site_fract_x
 _atom_site_fract_y
 _atom_site_fract_z
 _atom_site_occupancy
  La  La0  1  0.50000000  0.50000000  1.00000000  1.0
  La  La1  1  -0.00000000  -0.00000000  -0.00000000  1.0
  La  La2  1  0.52710421  1.02710421  0.85179091  1.0
  La  La3  1  1.17531330  0.67531330  1.14820909  1.0
  La  La4  1  1.02710421  1.17531330  1.50000000  1.0
  La  La5  1  0.67531330  0.52710421  0.50000000  1.0
  La  La6  1  0.47289579  0.97289579  1.14820909  1.0
  La  La7  1  0.82468670  0.32468670  0.85179091  1.0
  La  La8  1  0.97289579  0.82468670  1.50000000  1.0
  La  La9  1  0.32468670  0.47289579  0.50000000  1.0
  Si  Si10  1  0.25000000  0.25000000  0.00000000  1.0
  Si  Si11  1  0.75000000  0.75000000  1.00000000  1.0
  Ge  Ge12  1  0.87868456  0.37868456  1.25736912  1.0
  Ge  Ge13  1  0.12131544  0.62131544  0.74263088  1.0
  Ge  Ge14  1  0.37868456  0.12131544  0.50000000  1.0
  Ge  Ge15  1  0.62131544  0.87868456  1.50000000  1.0
