# generated using pymatgen
data_GeO2
_symmetry_space_group_name_H-M   'P 1'
_cell_length_a   5.08897931
_cell_length_b   5.08897931
_cell_length_c   7.29304270
_cell_angle_alpha   90.00000000
_cell_angle_beta   90.00000000
_cell_angle_gamma   90.00000000
_symmetry_Int_Tables_number   1
_chemical_formula_structural   GeO2
_chemical_formula_sum   'Ge4 O8'
_cell_volume   188.87310837
_cell_formula_units_Z   4
loop_
 _symmetry_equiv_pos_site_id
 _symmetry_equiv_pos_as_xyz
  1  'x, y, z'
loop_
 _atom_site_type_symbol
 _atom_site_label
 _atom_site_symmetry_multiplicity
 _atom_site_fract_x
 _atom_site_fract_y
 _atom_site_fract_z
 _atom_site_occupancy
  Ge  Ge0  1  0.18124345  0.81875655  0.25000000  1.0
  Ge  Ge1  1  0.68124345  0.68124345  0.50000000  1.0
  Ge  Ge2  1  0.81875655  0.18124345  0.75000000  1.0
  Ge  Ge3  1  0.31875655  0.31875655  0.00000000  1.0
  O  O4  1  0.27180100  0.65703934  0.04541020  1.0
  O  O5  1  0.77180100  0.84296066  0.70458980  1.0
  O  O6  1  0.34296066  0.72819900  0.45458980  1.0
  O  O7  1  0.84296066  0.77180100  0.29541020  1.0
  O  O8  1  0.72819900  0.34296066  0.54541020  1.0
  O  O9  1  0.22819900  0.15703934  0.20458980  1.0
  O  O10  1  0.65703934  0.27180100  0.95458980  1.0
  O  O11  1  0.15703934  0.22819900  0.79541020  1.0
