# generated using pymatgen
data_Ni4W13C
_symmetry_space_group_name_H-M   'P 1'
_cell_length_a   9.80092734
_cell_length_b   9.80092734
_cell_length_c   9.80092734
_cell_angle_alpha   60.00000000
_cell_angle_beta   60.00000000
_cell_angle_gamma   60.00000000
_symmetry_Int_Tables_number   1
_chemical_formula_structural   Ni4W13C
_chemical_formula_sum   'Ni8 W26 C2'
_cell_volume   665.71219215
_cell_formula_units_Z   2
loop_
 _symmetry_equiv_pos_site_id
 _symmetry_equiv_pos_as_xyz
  1  'x, y, z'
loop_
 _atom_site_type_symbol
 _atom_site_label
 _atom_site_symmetry_multiplicity
 _atom_site_fract_x
 _atom_site_fract_y
 _atom_site_fract_z
 _atom_site_occupancy
  Ni  Ni0  1  0.66507591  -0.33492409  1.00477226  1.0
  Ni  Ni1  1  0.66507591  0.00477226  0.66507591  1.0
  Ni  Ni2  1  0.58492409  -0.41507591  0.58492409  1.0
  Ni  Ni3  1  1.24522774  -0.41507591  0.58492409  1.0
  Ni  Ni4  1  1.00477226  -0.33492409  0.66507591  1.0
  Ni  Ni5  1  0.66507591  -0.33492409  0.66507591  1.0
  Ni  Ni6  1  0.58492409  0.24522774  0.58492409  1.0
  Ni  Ni7  1  0.58492409  -0.41507591  1.24522774  1.0
  W  W8  1  0.95703719  -0.59680465  0.68273028  1.0
  W  W9  1  -0.04296281  0.68273028  0.40319535  1.0
  W  W10  1  -0.15319535  0.29296281  0.29296281  1.0
  W  W11  1  0.56726972  0.29296281  0.29296281  1.0
  W  W12  1  -0.59680465  0.95703719  0.68273028  1.0
  W  W13  1  0.95703719  -0.04296281  0.68273028  1.0
  W  W14  1  0.95703719  -0.31726972  0.95703719  1.0
  W  W15  1  -0.59680465  0.68273028  0.95703719  1.0
  W  W16  1  0.29296281  -0.15319535  0.29296281  1.0
  W  W17  1  0.29296281  0.29296281  -0.15319535  1.0
  W  W18  1  0.56726972  0.29296281  -0.15319535  1.0
  W  W19  1  0.56726972  -0.15319535  0.29296281  1.0
  W  W20  1  0.68273028  -0.04296281  0.95703719  1.0
  W  W21  1  -0.59680465  0.95703719  0.95703719  1.0
  W  W22  1  0.29296281  0.56726972  -0.15319535  1.0
  W  W23  1  0.29296281  -0.15319535  0.56726972  1.0
  W  W24  1  -0.31726972  0.95703719  0.40319535  1.0
  W  W25  1  0.68273028  -0.59680465  0.95703719  1.0
  W  W26  1  0.95703719  -0.59680465  0.95703719  1.0
  W  W27  1  -0.04296281  0.95703719  0.40319535  1.0
  W  W28  1  0.29296281  0.56726972  0.29296281  1.0
  W  W29  1  -0.15319535  0.56726972  0.29296281  1.0
  W  W30  1  -0.15319535  0.29296281  0.56726972  1.0
  W  W31  1  0.29296281  0.29296281  0.56726972  1.0
  W  W32  1  0.50000000  0.50000000  -0.50000000  1.0
  W  W33  1  0.75000000  -0.25000000  0.75000000  1.0
  C  C34  1  -0.00000000  1.00000000  0.00000000  1.0
  C  C35  1  0.25000000  0.25000000  0.25000000  1.0
