# generated using pymatgen
data_Ca5(SiO5)2
_symmetry_space_group_name_H-M   'P 1'
_cell_length_a   9.00084955
_cell_length_b   5.10108599
_cell_length_c   11.52534637
_cell_angle_alpha   90.00000000
_cell_angle_beta   108.92167774
_cell_angle_gamma   90.00000000
_symmetry_Int_Tables_number   1
_chemical_formula_structural   Ca5(SiO5)2
_chemical_formula_sum   'Ca10 Si4 O20'
_cell_volume   500.58077141
_cell_formula_units_Z   2
loop_
 _symmetry_equiv_pos_site_id
 _symmetry_equiv_pos_as_xyz
  1  'x, y, z'
loop_
 _atom_site_type_symbol
 _atom_site_label
 _atom_site_symmetry_multiplicity
 _atom_site_fract_x
 _atom_site_fract_y
 _atom_site_fract_z
 _atom_site_occupancy
  O  O0  1  0.95605397  0.20001679  0.32988227  1.0
  O  O1  1  0.95605397  0.29998321  0.82988227  1.0
  O  O2  1  0.04394603  0.70001679  0.17011773  1.0
  O  O3  1  0.04394603  0.79998321  0.67011773  1.0
  O  O4  1  0.80186672  0.74407635  0.35347809  1.0
  O  O5  1  0.80186672  0.75592365  0.85347809  1.0
  O  O6  1  0.19813328  0.24407635  0.14652191  1.0
  O  O7  1  0.19813328  0.25592365  0.64652191  1.0
  O  O8  1  0.79169114  0.19802237  0.48217859  1.0
  O  O9  1  0.79169114  0.30197763  0.98217859  1.0
  O  O10  1  0.20830886  0.69802237  0.01782141  1.0
  O  O11  1  0.20830886  0.80197763  0.51782141  1.0
  O  O12  1  0.64523390  0.19148898  0.24383306  1.0
  O  O13  1  0.64523390  0.30851102  0.74383306  1.0
  O  O14  1  0.35476610  0.69148898  0.25616694  1.0
  O  O15  1  0.35476610  0.80851102  0.75616694  1.0
  O  O16  1  0.38438143  0.28702810  0.43114934  1.0
  O  O17  1  0.38438143  0.21297190  0.93114934  1.0
  O  O18  1  0.61561857  0.78702810  0.06885066  1.0
  O  O19  1  0.61561857  0.71297190  0.56885066  1.0
  Ca  Ca20  1  0.81221812  0.49786816  0.16961439  1.0
  Ca  Ca21  1  0.81221812  0.00213184  0.66961439  1.0
  Ca  Ca22  1  0.18778188  0.99786816  0.33038561  1.0
  Ca  Ca23  1  0.18778188  0.50213184  0.83038561  1.0
  Ca  Ca24  1  0.41610763  1.00260708  0.11754904  1.0
  Ca  Ca25  1  0.41610763  0.49739292  0.61754904  1.0
  Ca  Ca26  1  0.58389237  0.50260708  0.38245096  1.0
  Ca  Ca27  1  0.58389237  -0.00260708  0.88245096  1.0
  Ca  Ca28  1  -0.00000000  0.50000000  0.50000000  1.0
  Ca  Ca29  1  0.00000000  0.00000000  0.00000000  1.0
  Si  Si30  1  0.79959927  0.06499377  0.35221141  1.0
  Si  Si31  1  0.79959927  0.43500623  0.85221141  1.0
  Si  Si32  1  0.20040073  0.56499377  0.14778859  1.0
  Si  Si33  1  0.20040073  0.93500623  0.64778859  1.0
