# generated using pymatgen
data_Y5Ge4
_symmetry_space_group_name_H-M   'P 1'
_cell_length_a   7.66888962
_cell_length_b   14.74274150
_cell_length_c   7.73742867
_cell_angle_alpha   90.00000000
_cell_angle_beta   90.00000000
_cell_angle_gamma   90.00000000
_symmetry_Int_Tables_number   1
_chemical_formula_structural   Y5Ge4
_chemical_formula_sum   'Y20 Ge16'
_cell_volume   874.79722373
_cell_formula_units_Z   4
loop_
 _symmetry_equiv_pos_site_id
 _symmetry_equiv_pos_as_xyz
  1  'x, y, z'
loop_
 _atom_site_type_symbol
 _atom_site_label
 _atom_site_symmetry_multiplicity
 _atom_site_fract_x
 _atom_site_fract_y
 _atom_site_fract_z
 _atom_site_occupancy
  Y  Y0  1  0.28506738  0.25000000  0.50178087  1.0
  Y  Y1  1  0.78506738  0.25000000  0.99821913  1.0
  Y  Y2  1  0.71493262  0.75000000  0.49821913  1.0
  Y  Y3  1  0.21493262  0.75000000  0.00178087  1.0
  Y  Y4  1  0.46994100  0.39844978  0.17595936  1.0
  Y  Y5  1  0.46994100  0.10155022  0.17595936  1.0
  Y  Y6  1  0.96994100  0.39844978  0.32404064  1.0
  Y  Y7  1  0.96994100  0.10155022  0.32404064  1.0
  Y  Y8  1  0.53005900  0.89844978  0.82404064  1.0
  Y  Y9  1  0.53005900  0.60155022  0.82404064  1.0
  Y  Y10  1  0.03005900  0.89844978  0.67595936  1.0
  Y  Y11  1  0.03005900  0.60155022  0.67595936  1.0
  Y  Y12  1  0.12044646  0.38306666  0.83956699  1.0
  Y  Y13  1  0.12044646  0.11693334  0.83956699  1.0
  Y  Y14  1  0.62044646  0.38306666  0.66043301  1.0
  Y  Y15  1  0.62044646  0.11693334  0.66043301  1.0
  Y  Y16  1  0.87955354  0.88306666  0.16043301  1.0
  Y  Y17  1  0.87955354  0.61693334  0.16043301  1.0
  Y  Y18  1  0.37955354  0.88306666  0.33956699  1.0
  Y  Y19  1  0.37955354  0.61693334  0.33956699  1.0
  Ge  Ge20  1  0.27908837  0.45551607  0.53146588  1.0
  Ge  Ge21  1  0.27908837  0.04448393  0.53146588  1.0
  Ge  Ge22  1  0.77908837  0.45551607  0.96853412  1.0
  Ge  Ge23  1  0.77908837  0.04448393  0.96853412  1.0
  Ge  Ge24  1  0.72091163  0.95551607  0.46853412  1.0
  Ge  Ge25  1  0.72091163  0.54448393  0.46853412  1.0
  Ge  Ge26  1  0.22091163  0.95551607  0.03146588  1.0
  Ge  Ge27  1  0.22091163  0.54448393  0.03146588  1.0
  Ge  Ge28  1  0.41633438  0.25000000  0.88248035  1.0
  Ge  Ge29  1  0.91633438  0.25000000  0.61751965  1.0
  Ge  Ge30  1  0.58366562  0.75000000  0.11751965  1.0
  Ge  Ge31  1  0.08366562  0.75000000  0.38248035  1.0
  Ge  Ge32  1  0.16426830  0.25000000  0.13754352  1.0
  Ge  Ge33  1  0.66426830  0.25000000  0.36245648  1.0
  Ge  Ge34  1  0.83573170  0.75000000  0.86245648  1.0
  Ge  Ge35  1  0.33573170  0.75000000  0.63754352  1.0
