# generated using pymatgen
data_Na3FeO3
_symmetry_space_group_name_H-M   'P 1'
_cell_length_a   5.81866387
_cell_length_b   12.75433532
_cell_length_c   6.29777059
_cell_angle_alpha   90.00000000
_cell_angle_beta   122.03190935
_cell_angle_gamma   90.00000000
_symmetry_Int_Tables_number   1
_chemical_formula_structural   Na3FeO3
_chemical_formula_sum   'Na12 Fe4 O12'
_cell_volume   396.22072664
_cell_formula_units_Z   4
loop_
 _symmetry_equiv_pos_site_id
 _symmetry_equiv_pos_as_xyz
  1  'x, y, z'
loop_
 _atom_site_type_symbol
 _atom_site_label
 _atom_site_symmetry_multiplicity
 _atom_site_fract_x
 _atom_site_fract_y
 _atom_site_fract_z
 _atom_site_occupancy
  Na  Na0  1  0.95805623  0.01518927  0.21806773  1.0
  Na  Na1  1  0.95805623  0.48481073  0.71806773  1.0
  Na  Na2  1  0.04194377  0.51518927  0.28193227  1.0
  Na  Na3  1  0.04194377  0.98481073  0.78193227  1.0
  Na  Na4  1  0.94766637  0.27734893  0.30429594  1.0
  Na  Na5  1  0.94766637  0.22265107  0.80429594  1.0
  Na  Na6  1  0.05233363  0.77734893  0.19570406  1.0
  Na  Na7  1  0.05233363  0.72265107  0.69570406  1.0
  Na  Na8  1  0.56601277  0.09678775  0.35832636  1.0
  Na  Na9  1  0.56601277  0.40321225  0.85832636  1.0
  Na  Na10  1  0.43398723  0.59678775  0.14167364  1.0
  Na  Na11  1  0.43398723  0.90321225  0.64167364  1.0
  Fe  Fe12  1  0.41865158  0.33580753  0.24186077  1.0
  Fe  Fe13  1  0.41865158  0.16419247  0.74186077  1.0
  Fe  Fe14  1  0.58134842  0.83580753  0.25813923  1.0
  Fe  Fe15  1  0.58134842  0.66419247  0.75813923  1.0
  O  O16  1  0.94646587  0.87313022  0.45164887  1.0
  O  O17  1  0.94646587  0.62686978  0.95164887  1.0
  O  O18  1  0.05353413  0.37313022  0.04835113  1.0
  O  O19  1  0.05353413  0.12686978  0.54835113  1.0
  O  O20  1  0.67905652  0.43688124  0.30082750  1.0
  O  O21  1  0.67905652  0.06311876  0.80082750  1.0
  O  O22  1  0.32094348  0.93688124  0.19917250  1.0
  O  O23  1  0.32094348  0.56311876  0.69917250  1.0
  O  O24  1  0.47184535  0.22793291  0.04746104  1.0
  O  O25  1  0.47184535  0.27206709  0.54746104  1.0
  O  O26  1  0.52815465  0.72793291  0.45253896  1.0
  O  O27  1  0.52815465  0.77206709  0.95253896  1.0
