# generated using pymatgen
data_BaZn(SeO3)2
_symmetry_space_group_name_H-M   'P 1'
_cell_length_a   5.63793575
_cell_length_b   17.05774728
_cell_length_c   8.66347948
_cell_angle_alpha   90.00000000
_cell_angle_beta   122.64249587
_cell_angle_gamma   90.00000000
_symmetry_Int_Tables_number   1
_chemical_formula_structural   BaZn(SeO3)2
_chemical_formula_sum   'Ba4 Zn4 Se8 O24'
_cell_volume   701.57378165
_cell_formula_units_Z   4
loop_
 _symmetry_equiv_pos_site_id
 _symmetry_equiv_pos_as_xyz
  1  'x, y, z'
loop_
 _atom_site_type_symbol
 _atom_site_label
 _atom_site_symmetry_multiplicity
 _atom_site_fract_x
 _atom_site_fract_y
 _atom_site_fract_z
 _atom_site_occupancy
  Ba  Ba0  1  0.96709112  0.77912028  0.35708039  1.0
  Ba  Ba1  1  0.96709112  0.72087972  0.85708039  1.0
  Ba  Ba2  1  0.03290888  0.27912028  0.14291961  1.0
  Ba  Ba3  1  0.03290888  0.22087972  0.64291961  1.0
  Zn  Zn4  1  0.26569275  0.08266848  0.39622272  1.0
  Zn  Zn5  1  0.26569275  0.41733152  0.89622272  1.0
  Zn  Zn6  1  0.73430725  0.58266848  0.10377728  1.0
  Zn  Zn7  1  0.73430725  0.91733152  0.60377728  1.0
  Se  Se8  1  0.71121710  0.43028722  0.32242109  1.0
  Se  Se9  1  0.71121710  0.06971278  0.82242109  1.0
  Se  Se10  1  0.28878290  0.93028722  0.17757891  1.0
  Se  Se11  1  0.28878290  0.56971278  0.67757891  1.0
  Se  Se12  1  0.56177834  0.13230267  0.16276547  1.0
  Se  Se13  1  0.56177834  0.36769733  0.66276547  1.0
  Se  Se14  1  0.43822166  0.63230267  0.33723453  1.0
  Se  Se15  1  0.43822166  0.86769733  0.83723453  1.0
  O  O16  1  0.92286860  0.15130144  0.30719921  1.0
  O  O17  1  0.92286860  0.34869856  0.80719921  1.0
  O  O18  1  0.07713140  0.65130144  0.19280079  1.0
  O  O19  1  0.07713140  0.84869856  0.69280079  1.0
  O  O20  1  0.90136941  0.34670604  0.38399286  1.0
  O  O21  1  0.90136941  0.15329396  0.88399286  1.0
  O  O22  1  0.09863059  0.84670604  0.11600714  1.0
  O  O23  1  0.09863059  0.65329396  0.61600714  1.0
  O  O24  1  0.81362647  0.47416592  0.18580245  1.0
  O  O25  1  0.81362647  0.02583408  0.68580245  1.0
  O  O26  1  0.18637353  0.97416592  0.31419755  1.0
  O  O27  1  0.18637353  0.52583408  0.81419755  1.0
  O  O28  1  0.62740636  0.90130544  0.34711207  1.0
  O  O29  1  0.62740636  0.59869456  0.84711207  1.0
  O  O30  1  0.37259364  0.40130544  0.15288793  1.0
  O  O31  1  0.37259364  0.09869456  0.65288793  1.0
  O  O32  1  0.46131710  0.15437794  0.31692014  1.0
  O  O33  1  0.46131710  0.34562206  0.81692014  1.0
  O  O34  1  0.53868290  0.65437794  0.18307986  1.0
  O  O35  1  0.53868290  0.84562206  0.68307986  1.0
  O  O36  1  0.46553479  0.21370849  0.03220043  1.0
  O  O37  1  0.46553479  0.28629151  0.53220043  1.0
  O  O38  1  0.53446521  0.71370849  0.46779957  1.0
  O  O39  1  0.53446521  0.78629151  0.96779957  1.0
