# generated using pymatgen
data_K2Cd2S3
_symmetry_space_group_name_H-M   'P 1'
_cell_length_a   14.67514373
_cell_length_b   14.67514373
_cell_length_c   7.12183107
_cell_angle_alpha   90.00000000
_cell_angle_beta   90.00000000
_cell_angle_gamma   90.00000000
_symmetry_Int_Tables_number   1
_chemical_formula_structural   K2Cd2S3
_chemical_formula_sum   'K16 Cd16 S24'
_cell_volume   1533.75642400
_cell_formula_units_Z   8
loop_
 _symmetry_equiv_pos_site_id
 _symmetry_equiv_pos_as_xyz
  1  'x, y, z'
loop_
 _atom_site_type_symbol
 _atom_site_label
 _atom_site_symmetry_multiplicity
 _atom_site_fract_x
 _atom_site_fract_y
 _atom_site_fract_z
 _atom_site_occupancy
  K  K0  1  0.59609273  0.09609273  0.01693163  1.0
  K  K1  1  0.59609273  0.90390727  0.51693163  1.0
  K  K2  1  0.09609273  0.59609273  0.48306837  1.0
  K  K3  1  0.09609273  0.40390727  0.98306837  1.0
  K  K4  1  0.90390727  0.59609273  0.98306837  1.0
  K  K5  1  0.90390727  0.40390727  0.48306837  1.0
  K  K6  1  0.40390727  0.09609273  0.51693163  1.0
  K  K7  1  0.40390727  0.90390727  0.01693163  1.0
  K  K8  1  0.75000000  0.25000000  0.75000000  1.0
  K  K9  1  0.75000000  0.75000000  0.25000000  1.0
  K  K10  1  0.25000000  0.75000000  0.75000000  1.0
  K  K11  1  0.25000000  0.25000000  0.25000000  1.0
  K  K12  1  0.00000000  0.00000000  0.75000000  1.0
  K  K13  1  0.00000000  0.00000000  0.25000000  1.0
  K  K14  1  0.50000000  0.50000000  0.75000000  1.0
  K  K15  1  0.50000000  0.50000000  0.25000000  1.0
  Cd  Cd16  1  0.57462317  0.72117048  0.88413106  1.0
  Cd  Cd17  1  0.57462317  0.27882952  0.38413106  1.0
  Cd  Cd18  1  0.07462317  0.22117048  0.61586894  1.0
  Cd  Cd19  1  0.07462317  0.77882952  0.11586894  1.0
  Cd  Cd20  1  0.22117048  0.07462317  0.88413106  1.0
  Cd  Cd21  1  0.22117048  0.92537683  0.38413106  1.0
  Cd  Cd22  1  0.72117048  0.57462317  0.61586894  1.0
  Cd  Cd23  1  0.72117048  0.42537683  0.11586894  1.0
  Cd  Cd24  1  0.92537683  0.22117048  0.11586894  1.0
  Cd  Cd25  1  0.92537683  0.77882952  0.61586894  1.0
  Cd  Cd26  1  0.42537683  0.72117048  0.38413106  1.0
  Cd  Cd27  1  0.42537683  0.27882952  0.88413106  1.0
  Cd  Cd28  1  0.27882952  0.57462317  0.11586894  1.0
  Cd  Cd29  1  0.27882952  0.42537683  0.61586894  1.0
  Cd  Cd30  1  0.77882952  0.07462317  0.38413106  1.0
  Cd  Cd31  1  0.77882952  0.92537683  0.88413106  1.0
  S  S32  1  0.68541830  0.58347824  0.96934393  1.0
  S  S33  1  0.68541830  0.41652176  0.46934393  1.0
  S  S34  1  0.18541830  0.08347824  0.53065607  1.0
  S  S35  1  0.18541830  0.91652176  0.03065607  1.0
  S  S36  1  0.08347824  0.18541830  0.96934393  1.0
  S  S37  1  0.08347824  0.81458170  0.46934393  1.0
  S  S38  1  0.58347824  0.68541830  0.53065607  1.0
  S  S39  1  0.58347824  0.31458170  0.03065607  1.0
  S  S40  1  0.81458170  0.08347824  0.03065607  1.0
  S  S41  1  0.81458170  0.91652176  0.53065607  1.0
  S  S42  1  0.31458170  0.58347824  0.46934393  1.0
  S  S43  1  0.31458170  0.41652176  0.96934393  1.0
  S  S44  1  0.41652176  0.68541830  0.03065607  1.0
  S  S45  1  0.41652176  0.31458170  0.53065607  1.0
  S  S46  1  0.91652176  0.18541830  0.46934393  1.0
  S  S47  1  0.91652176  0.81458170  0.96934393  1.0
  S  S48  1  0.62152774  0.12152774  0.49605868  1.0
  S  S49  1  0.62152774  0.87847226  0.99605868  1.0
  S  S50  1  0.12152774  0.62152774  0.00394132  1.0
  S  S51  1  0.12152774  0.37847226  0.50394132  1.0
  S  S52  1  0.87847226  0.62152774  0.50394132  1.0
  S  S53  1  0.87847226  0.37847226  0.00394132  1.0
  S  S54  1  0.37847226  0.12152774  0.99605868  1.0
  S  S55  1  0.37847226  0.87847226  0.49605868  1.0
