# generated using pymatgen
data_Ti3Co5B2
_symmetry_space_group_name_H-M   'P 1'
_cell_length_a   8.41102487
_cell_length_b   8.41102487
_cell_length_c   3.06315776
_cell_angle_alpha   90.00000000
_cell_angle_beta   90.00000000
_cell_angle_gamma   90.00000000
_symmetry_Int_Tables_number   1
_chemical_formula_structural   Ti3Co5B2
_chemical_formula_sum   'Ti6 Co10 B4'
_cell_volume   216.70413487
_cell_formula_units_Z   2
loop_
 _symmetry_equiv_pos_site_id
 _symmetry_equiv_pos_as_xyz
  1  'x, y, z'
loop_
 _atom_site_type_symbol
 _atom_site_label
 _atom_site_symmetry_multiplicity
 _atom_site_fract_x
 _atom_site_fract_y
 _atom_site_fract_z
 _atom_site_occupancy
  Ti  Ti0  1  0.32571413  0.17428587  0.00000000  1.0
  Ti  Ti1  1  0.82571413  0.32571413  0.00000000  1.0
  Ti  Ti2  1  0.67428587  0.82571413  0.00000000  1.0
  Ti  Ti3  1  0.17428587  0.67428587  0.00000000  1.0
  Ti  Ti4  1  0.50000000  0.50000000  0.00000000  1.0
  Ti  Ti5  1  0.00000000  0.00000000  0.00000000  1.0
  Co  Co6  1  0.50000000  0.00000000  0.50000000  1.0
  Co  Co7  1  0.00000000  0.50000000  0.50000000  1.0
  Co  Co8  1  0.42903996  0.72039573  0.50000000  1.0
  Co  Co9  1  0.92903996  0.77960427  0.50000000  1.0
  Co  Co10  1  0.27960427  0.42903996  0.50000000  1.0
  Co  Co11  1  0.77960427  0.07096004  0.50000000  1.0
  Co  Co12  1  0.57096004  0.27960427  0.50000000  1.0
  Co  Co13  1  0.07096004  0.22039573  0.50000000  1.0
  Co  Co14  1  0.72039573  0.57096004  0.50000000  1.0
  Co  Co15  1  0.22039573  0.92903996  0.50000000  1.0
  B  B16  1  0.87919476  0.62080524  0.00000000  1.0
  B  B17  1  0.37919476  0.87919476  0.00000000  1.0
  B  B18  1  0.12080524  0.37919476  0.00000000  1.0
  B  B19  1  0.62080524  0.12080524  0.00000000  1.0
