# generated using pymatgen
data_Li2RuO3
_symmetry_space_group_name_H-M   'P 1'
_cell_length_a   5.09072328
_cell_length_b   5.09072328
_cell_length_c   9.95414191
_cell_angle_alpha   85.29253306
_cell_angle_beta   94.70746694
_cell_angle_gamma   59.45508683
_symmetry_Int_Tables_number   1
_chemical_formula_structural   Li2RuO3
_chemical_formula_sum   'Li8 Ru4 O12'
_cell_volume   219.10468415
_cell_formula_units_Z   4
loop_
 _symmetry_equiv_pos_site_id
 _symmetry_equiv_pos_as_xyz
  1  'x, y, z'
loop_
 _atom_site_type_symbol
 _atom_site_label
 _atom_site_symmetry_multiplicity
 _atom_site_fract_x
 _atom_site_fract_y
 _atom_site_fract_z
 _atom_site_occupancy
  Li  Li0  1  1.66126054  0.17721191  0.50212821  1.0
  Li  Li1  1  0.82278809  -0.66126054  1.00212821  1.0
  Li  Li2  1  1.17721191  0.66126054  -0.00212821  1.0
  Li  Li3  1  0.33873946  -0.17721191  0.49787179  1.0
  Li  Li4  1  0.58381179  -0.41618821  0.25000000  1.0
  Li  Li5  1  1.41618821  0.41618821  0.75000000  1.0
  Li  Li6  1  1.50000000  -0.00000000  -0.00000000  1.0
  Li  Li7  1  1.00000000  -0.50000000  0.50000000  1.0
  Ru  Ru8  1  0.91318110  -0.08681890  0.25000000  1.0
  Ru  Ru9  1  1.08681890  0.08681890  0.75000000  1.0
  Ru  Ru10  1  1.25400965  0.25400965  0.25000000  1.0
  Ru  Ru11  1  0.74599035  -0.25400965  0.75000000  1.0
  O  O12  1  1.80135632  0.03099032  0.86448520  1.0
  O  O13  1  0.96900968  -0.80135632  0.36448520  1.0
  O  O14  1  1.03099032  0.80135632  0.63551480  1.0
  O  O15  1  0.19864368  -0.03099032  0.13551480  1.0
  O  O16  1  0.62648826  -0.11509132  0.36965522  1.0
  O  O17  1  1.11509132  0.37351174  0.86965522  1.0
  O  O18  1  0.88490868  -0.37351174  0.13034478  1.0
  O  O19  1  1.37351174  0.11509132  0.63034478  1.0
  O  O20  1  1.54127643  0.28249340  0.12948375  1.0
  O  O21  1  0.71750660  -0.54127643  0.62948375  1.0
  O  O22  1  1.28249340  0.54127643  0.37051625  1.0
  O  O23  1  0.45872357  -0.28249340  0.87051625  1.0
