# generated using pymatgen
data_Li2InO2
_symmetry_space_group_name_H-M   'P 1'
_cell_length_a   8.58492484
_cell_length_b   8.58492484
_cell_length_c   8.58492484
_cell_angle_alpha   139.91043307
_cell_angle_beta   139.91043307
_cell_angle_gamma   57.98931845
_symmetry_Int_Tables_number   1
_chemical_formula_structural   Li2InO2
_chemical_formula_sum   'Li8 In4 O8'
_cell_volume   260.06239696
_cell_formula_units_Z   4
loop_
 _symmetry_equiv_pos_site_id
 _symmetry_equiv_pos_as_xyz
  1  'x, y, z'
loop_
 _atom_site_type_symbol
 _atom_site_label
 _atom_site_symmetry_multiplicity
 _atom_site_fract_x
 _atom_site_fract_y
 _atom_site_fract_z
 _atom_site_occupancy
  Li  Li0  1  1.32304131  0.54819432  0.77484699  1.0
  Li  Li1  1  0.97665266  0.70180568  1.27484699  1.0
  Li  Li2  1  0.77334734  0.54819432  0.22515301  1.0
  Li  Li3  1  0.42695869  0.70180568  0.72515301  1.0
  Li  Li4  1  0.45180568  0.22665266  0.77484699  1.0
  Li  Li5  1  0.29819432  0.57304131  0.27484699  1.0
  Li  Li6  1  0.45180568  0.67695869  1.22515301  1.0
  Li  Li7  1  0.29819432  1.02334734  0.72515301  1.0
  In  In8  1  0.37500000  0.12500000  0.25000000  1.0
  In  In9  1  0.87500000  0.12500000  0.75000000  1.0
  In  In10  1  0.87500000  1.12500000  1.25000000  1.0
  In  In11  1  0.87500000  0.62500000  0.75000000  1.0
  O  O12  1  0.56831157  -0.17143491  0.73974647  1.0
  O  O13  1  0.66118138  0.42143491  0.23974647  1.0
  O  O14  1  0.08881862  -0.17143491  0.26025353  1.0
  O  O15  1  1.18168843  0.42143491  0.76025353  1.0
  O  O16  1  1.17143491  0.91118138  0.73974647  1.0
  O  O17  1  0.57856509  0.81831157  1.23974647  1.0
  O  O18  1  1.17143491  1.43168843  1.26025353  1.0
  O  O19  1  0.57856509  0.33881862  0.76025353  1.0
