# generated using pymatgen
data_NaGdCl4
_symmetry_space_group_name_H-M   'P 1'
_cell_length_a   7.11400689
_cell_length_b   6.87250324
_cell_length_c   6.82377288
_cell_angle_alpha   102.40725129
_cell_angle_beta   93.41340071
_cell_angle_gamma   88.64347065
_symmetry_Int_Tables_number   1
_chemical_formula_structural   NaGdCl4
_chemical_formula_sum   'Na2 Gd2 Cl8'
_cell_volume   325.23132309
_cell_formula_units_Z   2
loop_
 _symmetry_equiv_pos_site_id
 _symmetry_equiv_pos_as_xyz
  1  'x, y, z'
loop_
 _atom_site_type_symbol
 _atom_site_label
 _atom_site_symmetry_multiplicity
 _atom_site_fract_x
 _atom_site_fract_y
 _atom_site_fract_z
 _atom_site_occupancy
  Na  Na0  1  0.46836807  0.80887084  -0.77456207  1.0
  Na  Na1  1  0.53163193  0.19112916  -0.22543793  1.0
  Gd  Gd2  1  0.94690943  0.69845257  -0.21268013  1.0
  Gd  Gd3  1  0.05309057  0.30154743  -0.78731987  1.0
  Cl  Cl4  1  0.75839466  0.50077785  -0.96223756  1.0
  Cl  Cl5  1  0.24160533  0.49922215  -0.03776244  1.0
  Cl  Cl6  1  0.79040107  1.00244690  -0.91326477  1.0
  Cl  Cl7  1  0.20959893  -0.00244690  -0.08673523  1.0
  Cl  Cl8  1  0.87589193  0.31812601  -0.44152502  1.0
  Cl  Cl9  1  0.12410807  0.68187399  -0.55847498  1.0
  Cl  Cl10  1  0.64022200  0.80103447  -0.40022610  1.0
  Cl  Cl11  1  0.35977800  0.19896553  -0.59977390  1.0
