# generated using pymatgen
data_Cr7(PO4)6
_symmetry_space_group_name_H-M   'P 1'
_cell_length_a   8.04825452
_cell_length_b   6.32191663
_cell_length_c   9.55383060
_cell_angle_alpha   69.17201816
_cell_angle_beta   66.53720393
_cell_angle_gamma   79.24668450
_symmetry_Int_Tables_number   1
_chemical_formula_structural   Cr7(PO4)6
_chemical_formula_sum   'Cr7 P6 O24'
_cell_volume   416.19701961
_cell_formula_units_Z   1
loop_
 _symmetry_equiv_pos_site_id
 _symmetry_equiv_pos_as_xyz
  1  'x, y, z'
loop_
 _atom_site_type_symbol
 _atom_site_label
 _atom_site_symmetry_multiplicity
 _atom_site_fract_x
 _atom_site_fract_y
 _atom_site_fract_z
 _atom_site_occupancy
  Cr  Cr0  1  -0.78801723  -0.02404620  0.97712506  1.0
  Cr  Cr1  1  -0.21198277  0.02404620  0.02287494  1.0
  Cr  Cr2  1  -0.67713530  0.51168685  0.20199874  1.0
  Cr  Cr3  1  -0.32286470  -0.51168685  0.79800126  1.0
  Cr  Cr4  1  -0.95840434  -0.22907243  0.60933256  1.0
  Cr  Cr5  1  -0.04159566  0.22907243  0.39066744  1.0
  Cr  Cr6  1  -0.50000000  -0.50000000  0.50000000  1.0
  P  P7  1  -0.90205676  0.24017340  0.66543206  1.0
  P  P8  1  -0.09794324  -0.24017340  0.33456794  1.0
  P  P9  1  -0.36084474  0.04141952  0.73601797  1.0
  P  P10  1  -0.63915526  -0.04141952  0.26398203  1.0
  P  P11  1  -0.73994600  -0.47154150  0.86633938  1.0
  P  P12  1  -0.26005400  0.47154150  0.13366062  1.0
  O  O13  1  -0.31841812  0.14644305  0.84614737  1.0
  O  O14  1  -0.68158188  -0.14644305  0.15385263  1.0
  O  O15  1  -0.94890287  0.08228354  0.84478814  1.0
  O  O16  1  -0.05109713  -0.08228354  0.15521186  1.0
  O  O17  1  -0.70501636  0.29997616  0.58076685  1.0
  O  O18  1  -0.29498364  -0.29997616  0.41923315  1.0
  O  O19  1  -0.96899613  0.54093408  0.33854974  1.0
  O  O20  1  -0.03100387  -0.54093408  0.66145026  1.0
  O  O21  1  -0.56122681  0.00116528  0.79890798  1.0
  O  O22  1  -0.43877319  -0.00116528  0.20109202  1.0
  O  O23  1  -0.30562872  0.21917535  0.56167403  1.0
  O  O24  1  -0.69437128  -0.21917535  0.43832597  1.0
  O  O25  1  -0.95634057  0.10447291  0.58030247  1.0
  O  O26  1  -0.04365943  -0.10447291  0.41969753  1.0
  O  O27  1  -0.74885439  -0.35743917  0.99218266  1.0
  O  O28  1  -0.25114561  0.35743917  0.00781734  1.0
  O  O29  1  -0.24742330  -0.18858867  0.73455228  1.0
  O  O30  1  -0.75257670  0.18858867  0.26544772  1.0
  O  O31  1  -0.86959498  -0.33638007  0.78133730  1.0
  O  O32  1  -0.13040502  0.33638007  0.21866270  1.0
  O  O33  1  -0.54182833  -0.46330933  0.73354400  1.0
  O  O34  1  -0.45817167  0.46330933  0.26645600  1.0
  O  O35  1  -0.78897695  -0.71640455  0.96623524  1.0
  O  O36  1  -0.21102305  0.71640455  0.03376476  1.0
