# generated using pymatgen
data_Pt(OF3)2
_symmetry_space_group_name_H-M   'P 1'
_cell_length_a   8.99202394
_cell_length_b   8.99202394
_cell_length_c   8.99202394
_cell_angle_alpha   109.47122063
_cell_angle_beta   109.47122063
_cell_angle_gamma   109.47122063
_symmetry_Int_Tables_number   1
_chemical_formula_structural   Pt(OF3)2
_chemical_formula_sum   'Pt4 O8 F24'
_cell_volume   559.69377033
_cell_formula_units_Z   4
loop_
 _symmetry_equiv_pos_site_id
 _symmetry_equiv_pos_as_xyz
  1  'x, y, z'
loop_
 _atom_site_type_symbol
 _atom_site_label
 _atom_site_symmetry_multiplicity
 _atom_site_fract_x
 _atom_site_fract_y
 _atom_site_fract_z
 _atom_site_occupancy
  Pt  Pt0  1  1.00000000  0.50000000  1.00000000  1.0
  Pt  Pt1  1  0.50000000  0.50000000  0.50000000  1.0
  Pt  Pt2  1  1.00000000  1.00000000  1.50000000  1.0
  Pt  Pt3  1  1.50000000  1.00000000  1.00000000  1.0
  O  O4  1  0.56474892  1.50000000  1.00000000  1.0
  O  O5  1  1.06474892  1.06474892  1.06474892  1.0
  O  O6  1  1.00000000  0.56474892  1.50000000  1.0
  O  O7  1  1.50000000  1.00000000  1.43525108  1.0
  O  O8  1  1.00000000  1.43525108  1.50000000  1.0
  O  O9  1  0.50000000  1.00000000  0.56474892  1.0
  O  O10  1  1.43525108  0.50000000  1.00000000  1.0
  O  O11  1  0.93525108  0.93525108  0.93525108  1.0
  F  F12  1  0.54306110  0.58436704  0.74307146  1.0
  F  F13  1  1.04306110  0.29998963  0.95869405  1.0
  F  F14  1  0.34129558  0.79998963  0.75692854  1.0
  F  F15  1  0.84129558  1.08436704  0.54130595  1.0
  F  F16  1  0.45869405  1.15870442  0.91563296  1.0
  F  F17  1  0.95869405  1.04306110  0.29998963  1.0
  F  F18  1  0.74307146  0.54306110  0.58436704  1.0
  F  F19  1  1.24307146  0.65870442  1.20001037  1.0
  F  F20  1  0.79998963  0.75692854  0.34129558  1.0
  F  F21  1  1.29998963  0.95869405  1.04306110  1.0
  F  F22  1  0.91563296  0.45869405  1.15870442  1.0
  F  F23  1  1.41563296  1.25692854  1.45693890  1.0
  F  F24  1  1.65870442  1.20001037  1.24307146  1.0
  F  F25  1  1.15870442  0.91563296  1.45869405  1.0
  F  F26  1  1.45693890  1.41563296  1.25692854  1.0
  F  F27  1  0.95693890  1.70001037  1.04130595  1.0
  F  F28  1  1.25692854  1.45693890  1.41563296  1.0
  F  F29  1  0.75692854  1.34129558  0.79998963  1.0
  F  F30  1  1.54130595  0.84129558  1.08436704  1.0
  F  F31  1  1.04130595  0.95693890  1.70001037  1.0
  F  F32  1  1.08436704  1.54130595  0.84129558  1.0
  F  F33  1  0.58436704  0.74307146  0.54306110  1.0
  F  F34  1  1.20001037  1.24307146  1.65870442  1.0
  F  F35  1  0.70001037  1.04130595  0.95693890  1.0
