# generated using pymatgen
data_Sr2LiGe3
_symmetry_space_group_name_H-M   'P 1'
_cell_length_a   8.83842487
_cell_length_b   8.71762183
_cell_length_c   6.35922672
_cell_angle_alpha   69.78121265
_cell_angle_beta   67.75204726
_cell_angle_gamma   42.46674009
_symmetry_Int_Tables_number   1
_chemical_formula_structural   Sr2LiGe3
_chemical_formula_sum   'Sr4 Li2 Ge6'
_cell_volume   304.45834968
_cell_formula_units_Z   2
loop_
 _symmetry_equiv_pos_site_id
 _symmetry_equiv_pos_as_xyz
  1  'x, y, z'
loop_
 _atom_site_type_symbol
 _atom_site_label
 _atom_site_symmetry_multiplicity
 _atom_site_fract_x
 _atom_site_fract_y
 _atom_site_fract_z
 _atom_site_occupancy
  Sr  Sr0  1  0.24057708  -0.24057708  1.24057708  1.0
  Sr  Sr1  1  -0.24057708  0.24057708  0.75942292  1.0
  Sr  Sr2  1  -0.25000000  0.75000000  0.75000000  1.0
  Sr  Sr3  1  0.25000000  0.25000000  1.25000000  1.0
  Li  Li4  1  -0.33381133  0.66618867  0.33381133  1.0
  Li  Li5  1  0.33381133  0.33381133  -0.33381133  1.0
  Ge  Ge6  1  -0.33482652  1.16861971  0.33482652  1.0
  Ge  Ge7  1  -0.16861971  0.33482652  0.16861971  1.0
  Ge  Ge8  1  -0.66517348  0.83138029  0.66517348  1.0
  Ge  Ge9  1  0.16861971  0.66517348  -0.16861971  1.0
  Ge  Ge10  1  -0.16655851  0.83344149  0.16655851  1.0
  Ge  Ge11  1  0.16655851  0.16655851  -0.16655851  1.0
