# generated using pymatgen
data_Eu(As3Ru)4
_symmetry_space_group_name_H-M   'P 1'
_cell_length_a   7.45200678
_cell_length_b   7.45200678
_cell_length_c   7.45200678
_cell_angle_alpha   109.47122063
_cell_angle_beta   109.47122063
_cell_angle_gamma   109.47122063
_symmetry_Int_Tables_number   1
_chemical_formula_structural   Eu(As3Ru)4
_chemical_formula_sum   'Eu1 As12 Ru4'
_cell_volume   318.56483379
_cell_formula_units_Z   1
loop_
 _symmetry_equiv_pos_site_id
 _symmetry_equiv_pos_as_xyz
  1  'x, y, z'
loop_
 _atom_site_type_symbol
 _atom_site_label
 _atom_site_symmetry_multiplicity
 _atom_site_fract_x
 _atom_site_fract_y
 _atom_site_fract_z
 _atom_site_occupancy
  Eu  Eu0  1  0.00000000  0.00000000  0.00000000  1.0
  As  As1  1  0.84971161  1.35010078  1.19981239  1.0
  As  As2  1  0.84971161  0.64989922  0.49961082  1.0
  As  As3  1  0.15028839  0.35010078  0.50038918  1.0
  As  As4  1  0.15028839  0.64989922  0.80018761  1.0
  As  As5  1  0.49961082  0.84971161  0.64989922  1.0
  As  As6  1  1.19981239  0.84971161  1.35010078  1.0
  As  As7  1  0.64989922  0.80018761  0.15028839  1.0
  As  As8  1  0.64989922  0.49961082  0.84971161  1.0
  As  As9  1  0.80018761  0.15028839  0.64989922  1.0
  As  As10  1  0.50038918  0.15028839  0.35010078  1.0
  As  As11  1  0.35010078  0.50038918  0.15028839  1.0
  As  As12  1  1.35010078  1.19981239  0.84971161  1.0
  Ru  Ru13  1  0.50000000  1.00000000  1.00000000  1.0
  Ru  Ru14  1  0.50000000  0.50000000  0.50000000  1.0
  Ru  Ru15  1  1.00000000  1.00000000  0.50000000  1.0
  Ru  Ru16  1  1.00000000  0.50000000  1.00000000  1.0
