# generated using pymatgen
data_V4O7
_symmetry_space_group_name_H-M   'P 1'
_cell_length_a   6.80460408
_cell_length_b   5.54708057
_cell_length_c   7.04794419
_cell_angle_alpha   70.51697014
_cell_angle_beta   64.30780803
_cell_angle_gamma   75.01737612
_symmetry_Int_Tables_number   1
_chemical_formula_structural   V4O7
_chemical_formula_sum   'V8 O14'
_cell_volume   223.96045239
_cell_formula_units_Z   2
loop_
 _symmetry_equiv_pos_site_id
 _symmetry_equiv_pos_as_xyz
  1  'x, y, z'
loop_
 _atom_site_type_symbol
 _atom_site_label
 _atom_site_symmetry_multiplicity
 _atom_site_fract_x
 _atom_site_fract_y
 _atom_site_fract_z
 _atom_site_occupancy
  V  V0  1  -0.90671477  -0.81285015  -0.23881800  1.0
  V  V1  1  -0.09328523  -0.18714985  -0.76118200  1.0
  V  V2  1  -0.89690159  -0.81860461  -0.74137745  1.0
  V  V3  1  -0.10309841  -0.18139539  -0.25862255  1.0
  V  V4  1  -0.37176646  -0.71059302  -0.91831144  1.0
  V  V5  1  -0.62823354  -0.28940698  -0.08168856  1.0
  V  V6  1  -0.62869583  -0.28195060  -0.58524045  1.0
  V  V7  1  -0.37130417  -0.71804940  -0.41475955  1.0
  O  O8  1  -0.82896193  -0.97275095  -0.98065123  1.0
  O  O9  1  -0.17103807  -0.02724905  -0.01934877  1.0
  O  O10  1  -0.61062420  -0.91684278  -0.74437667  1.0
  O  O11  1  -0.38937580  -0.08315722  -0.25562333  1.0
  O  O12  1  -0.22567060  -0.83052845  -0.70181695  1.0
  O  O13  1  -0.77432940  -0.16947155  -0.29818305  1.0
  O  O14  1  -0.66651404  -0.64581061  -0.40745904  1.0
  O  O15  1  -0.33348596  -0.35418939  -0.59254096  1.0
  O  O16  1  -0.89735261  -0.47190895  -0.86086399  1.0
  O  O17  1  -0.10264739  -0.52809105  -0.13913601  1.0
  O  O18  1  -0.53313811  -0.40158931  -0.83909025  1.0
  O  O19  1  -0.46686189  -0.59841069  -0.16090975  1.0
  O  O20  1  -0.94723468  -0.20528474  -0.56464886  1.0
  O  O21  1  -0.05276532  -0.79471526  -0.43535114  1.0
