# generated using pymatgen
data_ScGaPt
_symmetry_space_group_name_H-M   'P 1'
_cell_length_a   6.37098393
_cell_length_b   4.37286195
_cell_length_c   7.57831177
_cell_angle_alpha   90.00000000
_cell_angle_beta   90.00000000
_cell_angle_gamma   90.00000000
_symmetry_Int_Tables_number   1
_chemical_formula_structural   ScGaPt
_chemical_formula_sum   'Sc4 Ga4 Pt4'
_cell_volume   211.12747070
_cell_formula_units_Z   4
loop_
 _symmetry_equiv_pos_site_id
 _symmetry_equiv_pos_as_xyz
  1  'x, y, z'
loop_
 _atom_site_type_symbol
 _atom_site_label
 _atom_site_symmetry_multiplicity
 _atom_site_fract_x
 _atom_site_fract_y
 _atom_site_fract_z
 _atom_site_occupancy
  Sc  Sc0  1  1.01022534  0.75000000  0.70803198  1.0
  Sc  Sc1  1  0.51022534  0.75000000  0.79196802  1.0
  Sc  Sc2  1  -0.01022534  0.25000000  0.29196802  1.0
  Sc  Sc3  1  0.48977466  0.25000000  0.20803198  1.0
  Ga  Ga4  1  0.68746841  0.75000000  0.42190182  1.0
  Ga  Ga5  1  0.18746841  0.75000000  0.07809818  1.0
  Ga  Ga6  1  0.31253159  0.25000000  0.57809818  1.0
  Ga  Ga7  1  0.81253159  0.25000000  0.92190182  1.0
  Pt  Pt8  1  0.76534109  0.75000000  0.09247165  1.0
  Pt  Pt9  1  0.26534109  0.75000000  0.40752835  1.0
  Pt  Pt10  1  0.23465891  0.25000000  0.90752835  1.0
  Pt  Pt11  1  0.73465891  0.25000000  0.59247165  1.0
