# generated using pymatgen
data_ZnCuCO5
_symmetry_space_group_name_H-M   'P 1'
_cell_length_a   3.23325582
_cell_length_b   9.05946304
_cell_length_c   12.72253552
_cell_angle_alpha   90.00000000
_cell_angle_beta   100.61674628
_cell_angle_gamma   90.00000000
_symmetry_Int_Tables_number   1
_chemical_formula_structural   ZnCuCO5
_chemical_formula_sum   'Zn4 Cu4 C4 O20'
_cell_volume   366.28351816
_cell_formula_units_Z   4
loop_
 _symmetry_equiv_pos_site_id
 _symmetry_equiv_pos_as_xyz
  1  'x, y, z'
loop_
 _atom_site_type_symbol
 _atom_site_label
 _atom_site_symmetry_multiplicity
 _atom_site_fract_x
 _atom_site_fract_y
 _atom_site_fract_z
 _atom_site_occupancy
  C  C0  1  0.69371557  0.22208727  0.62742173  1.0
  C  C1  1  0.30628443  0.72208727  0.87257827  1.0
  C  C2  1  0.30628443  0.77791273  0.37257827  1.0
  C  C3  1  0.69371557  0.27791273  0.12742173  1.0
  O  O4  1  0.64016634  0.36544170  0.62704644  1.0
  O  O5  1  0.35983366  0.86544170  0.87295356  1.0
  O  O6  1  0.35983366  0.63455830  0.37295356  1.0
  O  O7  1  0.64016634  0.13455830  0.12704644  1.0
  O  O8  1  0.65874891  0.15396375  0.71733322  1.0
  O  O9  1  0.34125109  0.65396375  0.78266678  1.0
  O  O10  1  0.34125109  0.84603625  0.28266678  1.0
  O  O11  1  0.65874891  0.34603625  0.21733322  1.0
  O  O12  1  0.74891748  0.15391784  0.54568944  1.0
  O  O13  1  0.25108252  0.65391784  0.95431056  1.0
  O  O14  1  0.25108252  0.84608216  0.45431056  1.0
  O  O15  1  0.74891748  0.34608216  0.04568944  1.0
  O  O16  1  0.15600788  0.13209707  0.89292913  1.0
  O  O17  1  0.84399212  0.63209707  0.60707087  1.0
  O  O18  1  0.84399212  0.86790293  0.10707087  1.0
  O  O19  1  0.15600788  0.36790293  0.39292913  1.0
  O  O20  1  0.10946757  0.38775981  0.83758481  1.0
  O  O21  1  0.89053243  0.88775981  0.66241519  1.0
  O  O22  1  0.89053243  0.61224019  0.16241519  1.0
  O  O23  1  0.10946757  0.11224019  0.33758481  1.0
  Zn  Zn24  1  0.65317048  0.27056794  0.89022366  1.0
  Zn  Zn25  1  0.34682952  0.77056794  0.60977634  1.0
  Zn  Zn26  1  0.34682952  0.72943206  0.10977634  1.0
  Zn  Zn27  1  0.65317048  0.22943206  0.39022366  1.0
  Cu  Cu28  1  0.97805670  0.50138452  0.71924391  1.0
  Cu  Cu29  1  0.02194330  1.00138452  0.78075609  1.0
  Cu  Cu30  1  0.02194330  0.49861548  0.28075609  1.0
  Cu  Cu31  1  0.97805670  -0.00138452  0.21924391  1.0
