# generated using pymatgen
data_P
_symmetry_space_group_name_H-M   'P 1'
_cell_length_a   2.45947736
_cell_length_b   2.45947736
_cell_length_c   9.68868972
_cell_angle_alpha   90.00000000
_cell_angle_beta   90.00000000
_cell_angle_gamma   89.97953303
_symmetry_Int_Tables_number   1
_chemical_formula_structural   P
_chemical_formula_sum   P4
_cell_volume   58.60716018
_cell_formula_units_Z   4
loop_
 _symmetry_equiv_pos_site_id
 _symmetry_equiv_pos_as_xyz
  1  'x, y, z'
loop_
 _atom_site_type_symbol
 _atom_site_label
 _atom_site_symmetry_multiplicity
 _atom_site_fract_x
 _atom_site_fract_y
 _atom_site_fract_z
 _atom_site_occupancy
  P  P0  1  -0.00000000  -0.00000000  0.00000000  1.0
  P  P1  1  0.00000000  0.00000000  0.50000000  1.0
  P  P2  1  -0.00001673  1.00001673  0.75000000  1.0
  P  P3  1  0.00001673  0.99998327  0.25000000  1.0
