# generated using pymatgen
data_TlIO4
_symmetry_space_group_name_H-M   'P 1'
_cell_length_a   7.91331390
_cell_length_b   7.91331390
_cell_length_c   7.91331390
_cell_angle_alpha   135.19395877
_cell_angle_beta   135.19395877
_cell_angle_gamma   65.22898035
_symmetry_Int_Tables_number   1
_chemical_formula_structural   TlIO4
_chemical_formula_sum   'Tl2 I2 O8'
_cell_volume   242.51117167
_cell_formula_units_Z   2
loop_
 _symmetry_equiv_pos_site_id
 _symmetry_equiv_pos_as_xyz
  1  'x, y, z'
loop_
 _atom_site_type_symbol
 _atom_site_label
 _atom_site_symmetry_multiplicity
 _atom_site_fract_x
 _atom_site_fract_y
 _atom_site_fract_z
 _atom_site_occupancy
  Tl  Tl0  1  0.25000000  0.75000000  0.50000000  1.0
  Tl  Tl1  1  0.50000000  0.50000000  1.00000000  1.0
  I  I2  1  0.75000000  0.25000000  0.50000000  1.0
  I  I3  1  -0.00000000  0.00000000  -0.00000000  1.0
  O  O4  1  0.95125156  0.85820046  1.65374768  1.0
  O  O5  1  0.20445278  0.29750388  0.34625232  1.0
  O  O6  1  0.54554722  0.95249612  1.15374768  1.0
  O  O7  1  0.79874844  0.39179954  0.84625232  1.0
  O  O8  1  1.14179954  0.79554722  1.09305110  1.0
  O  O9  1  0.70249612  1.04874844  0.90694890  1.0
  O  O10  1  1.04750388  1.20125156  1.59305110  1.0
  O  O11  1  0.60820046  0.45445278  0.40694890  1.0
