# generated using pymatgen
data_V3GaN
_symmetry_space_group_name_H-M   'P 1'
_cell_length_a   5.34227027
_cell_length_b   5.34227027
_cell_length_c   7.90045915
_cell_angle_alpha   90.00000000
_cell_angle_beta   90.00000000
_cell_angle_gamma   147.88685598
_symmetry_Int_Tables_number   1
_chemical_formula_structural   V3GaN
_chemical_formula_sum   'V6 Ga2 N2'
_cell_volume   119.86246778
_cell_formula_units_Z   2
loop_
 _symmetry_equiv_pos_site_id
 _symmetry_equiv_pos_as_xyz
  1  'x, y, z'
loop_
 _atom_site_type_symbol
 _atom_site_label
 _atom_site_symmetry_multiplicity
 _atom_site_fract_x
 _atom_site_fract_y
 _atom_site_fract_z
 _atom_site_occupancy
  V  V0  1  0.37454863  0.62545137  0.95839820  1.0
  V  V1  1  0.37454863  0.62545137  0.54160180  1.0
  V  V2  1  -0.37454863  0.37454863  0.45839820  1.0
  V  V3  1  -0.37454863  0.37454863  0.04160180  1.0
  V  V4  1  0.03210476  0.96789524  0.75000000  1.0
  V  V5  1  -0.03210476  0.03210476  0.25000000  1.0
  Ga  Ga6  1  -0.25760999  0.25760999  0.75000000  1.0
  Ga  Ga7  1  0.25760999  0.74239001  0.25000000  1.0
  N  N8  1  0.00000000  0.00000000  0.00000000  1.0
  N  N9  1  0.00000000  0.00000000  0.50000000  1.0
