# generated using pymatgen
data_La3CrW(SO2)3
_symmetry_space_group_name_H-M   'P 1'
_cell_length_a   9.49613852
_cell_length_b   9.49613852
_cell_length_c   5.53901067
_cell_angle_alpha   90.00000000
_cell_angle_beta   90.00000000
_cell_angle_gamma   120.00000000
_symmetry_Int_Tables_number   1
_chemical_formula_structural   La3CrW(SO2)3
_chemical_formula_sum   'La6 Cr2 W2 S6 O12'
_cell_volume   432.57051672
_cell_formula_units_Z   2
loop_
 _symmetry_equiv_pos_site_id
 _symmetry_equiv_pos_as_xyz
  1  'x, y, z'
loop_
 _atom_site_type_symbol
 _atom_site_label
 _atom_site_symmetry_multiplicity
 _atom_site_fract_x
 _atom_site_fract_y
 _atom_site_fract_z
 _atom_site_occupancy
  La  La0  1  0.68252572  0.59346231  0.25000000  1.0
  La  La1  1  0.59346231  0.91093660  0.75000000  1.0
  La  La2  1  0.91093660  0.31747428  0.25000000  1.0
  La  La3  1  0.40653769  0.08906340  0.25000000  1.0
  La  La4  1  0.31747428  0.40653769  0.75000000  1.0
  La  La5  1  0.08906340  0.68252572  0.75000000  1.0
  Cr  Cr6  1  0.00000000  0.00000000  0.50000000  1.0
  Cr  Cr7  1  0.00000000  0.00000000  0.00000000  1.0
  W  W8  1  0.33333333  0.66666667  0.25000000  1.0
  W  W9  1  0.66666667  0.33333333  0.75000000  1.0
  S  S10  1  0.04445968  0.82199551  0.25000000  1.0
  S  S11  1  0.82199551  0.77753582  0.75000000  1.0
  S  S12  1  0.77753582  0.95554032  0.25000000  1.0
  S  S13  1  0.17800449  0.22246418  0.25000000  1.0
  S  S14  1  0.95554032  0.17800449  0.75000000  1.0
  S  S15  1  0.22246418  0.04445968  0.75000000  1.0
  O  O16  1  0.36459101  0.83749139  0.47558349  1.0
  O  O17  1  0.36459101  0.83749139  0.02441651  1.0
  O  O18  1  0.83749139  0.47290038  0.97558349  1.0
  O  O19  1  0.83749139  0.47290038  0.52441651  1.0
  O  O20  1  0.47290038  0.63540899  0.47558349  1.0
  O  O21  1  0.47290038  0.63540899  0.02441651  1.0
  O  O22  1  0.16250861  0.52709962  0.47558349  1.0
  O  O23  1  0.16250861  0.52709962  0.02441651  1.0
  O  O24  1  0.63540899  0.16250861  0.97558349  1.0
  O  O25  1  0.63540899  0.16250861  0.52441651  1.0
  O  O26  1  0.52709962  0.36459101  0.97558349  1.0
  O  O27  1  0.52709962  0.36459101  0.52441651  1.0
