# generated using pymatgen
data_Ti(Bi3O5)4
_symmetry_space_group_name_H-M   'P 1'
_cell_length_a   8.96032390
_cell_length_b   8.96032390
_cell_length_c   8.96032390
_cell_angle_alpha   109.47122063
_cell_angle_beta   109.47122063
_cell_angle_gamma   109.47122063
_symmetry_Int_Tables_number   1
_chemical_formula_structural   Ti(Bi3O5)4
_chemical_formula_sum   'Ti1 Bi12 O20'
_cell_volume   553.79526164
_cell_formula_units_Z   1
loop_
 _symmetry_equiv_pos_site_id
 _symmetry_equiv_pos_as_xyz
  1  'x, y, z'
loop_
 _atom_site_type_symbol
 _atom_site_label
 _atom_site_symmetry_multiplicity
 _atom_site_fract_x
 _atom_site_fract_y
 _atom_site_fract_z
 _atom_site_occupancy
  Ti  Ti0  1  0.00000000  0.00000000  0.00000000  1.0
  Bi  Bi1  1  0.49620139  0.33435879  0.19396735  1.0
  Bi  Bi2  1  1.14039145  1.30223404  0.80603265  1.0
  Bi  Bi3  1  0.19396735  0.49620139  0.33435879  1.0
  Bi  Bi4  1  1.16184259  0.85960855  1.66564121  1.0
  Bi  Bi5  1  0.33435879  0.19396735  0.49620139  1.0
  Bi  Bi6  1  0.69776596  0.83815741  0.50379861  1.0
  Bi  Bi7  1  0.85960855  1.66564121  1.16184259  1.0
  Bi  Bi8  1  0.50379861  0.69776596  0.83815741  1.0
  Bi  Bi9  1  0.83815741  0.50379861  0.69776596  1.0
  Bi  Bi10  1  0.80603265  1.14039145  1.30223404  1.0
  Bi  Bi11  1  1.30223404  0.80603265  1.14039145  1.0
  Bi  Bi12  1  1.66564121  1.16184259  0.85960855  1.0
  O  O13  1  0.73529394  0.62073464  0.37816480  1.0
  O  O14  1  1.24256984  1.35712914  0.62183520  1.0
  O  O15  1  0.37816480  0.73529394  0.62073464  1.0
  O  O16  1  1.11455930  0.75743016  1.37926536  1.0
  O  O17  1  0.62073464  0.37816480  0.73529394  1.0
  O  O18  1  0.64287086  0.88544070  0.26470606  1.0
  O  O19  1  0.75743016  1.37926536  1.11455930  1.0
  O  O20  1  0.26470606  0.64287086  0.88544070  1.0
  O  O21  1  0.88544070  0.26470606  0.64287086  1.0
  O  O22  1  0.62183520  1.24256984  1.35712914  1.0
  O  O23  1  1.35712914  0.62183520  1.24256984  1.0
  O  O24  1  1.37926536  1.11455930  0.75743016  1.0
  O  O25  1  0.38746976  0.38746976  0.38746976  1.0
  O  O26  1  1.00000000  1.00000000  0.61253024  1.0
  O  O27  1  1.00000000  0.61253024  1.00000000  1.0
  O  O28  1  0.61253024  1.00000000  1.00000000  1.0
  O  O29  1  0.79450859  0.79450859  0.79450859  1.0
  O  O30  1  1.00000000  1.00000000  0.20549141  1.0
  O  O31  1  1.00000000  0.20549141  1.00000000  1.0
  O  O32  1  0.20549141  1.00000000  1.00000000  1.0
