# generated using pymatgen
data_HgPt2Se3
_symmetry_space_group_name_H-M   'P 1'
_cell_length_a   7.50377806
_cell_length_b   7.50377806
_cell_length_c   5.45077819
_cell_angle_alpha   90.00000000
_cell_angle_beta   90.00000000
_cell_angle_gamma   120.00000000
_symmetry_Int_Tables_number   1
_chemical_formula_structural   HgPt2Se3
_chemical_formula_sum   'Hg2 Pt4 Se6'
_cell_volume   265.79640471
_cell_formula_units_Z   2
loop_
 _symmetry_equiv_pos_site_id
 _symmetry_equiv_pos_as_xyz
  1  'x, y, z'
loop_
 _atom_site_type_symbol
 _atom_site_label
 _atom_site_symmetry_multiplicity
 _atom_site_fract_x
 _atom_site_fract_y
 _atom_site_fract_z
 _atom_site_occupancy
  Hg  Hg0  1  0.33333333  0.66666667  0.34901736  1.0
  Hg  Hg1  1  0.66666667  0.33333333  0.65098264  1.0
  Pt  Pt2  1  0.50000000  0.50000000  0.00000000  1.0
  Pt  Pt3  1  0.50000000  0.00000000  0.00000000  1.0
  Pt  Pt4  1  -0.00000000  0.50000000  -0.00000000  1.0
  Pt  Pt5  1  -0.00000000  -0.00000000  0.00000000  1.0
  Se  Se6  1  0.34476430  0.17238215  0.23300236  1.0
  Se  Se7  1  0.17238215  0.34476430  0.76699764  1.0
  Se  Se8  1  0.17238215  0.82761785  0.76699764  1.0
  Se  Se9  1  0.82761785  0.17238215  0.23300236  1.0
  Se  Se10  1  0.82761785  0.65523570  0.23300236  1.0
  Se  Se11  1  0.65523570  0.82761785  0.76699764  1.0
