# generated using pymatgen
data_CsN3
_symmetry_space_group_name_H-M   'P 1'
_cell_length_a   6.23975099
_cell_length_b   6.23975099
_cell_length_c   6.23975099
_cell_angle_alpha   115.42391888
_cell_angle_beta   115.42391888
_cell_angle_gamma   98.12745350
_symmetry_Int_Tables_number   1
_chemical_formula_structural   CsN3
_chemical_formula_sum   'Cs2 N6'
_cell_volume   181.68412131
_cell_formula_units_Z   2
loop_
 _symmetry_equiv_pos_site_id
 _symmetry_equiv_pos_as_xyz
  1  'x, y, z'
loop_
 _atom_site_type_symbol
 _atom_site_label
 _atom_site_symmetry_multiplicity
 _atom_site_fract_x
 _atom_site_fract_y
 _atom_site_fract_z
 _atom_site_occupancy
  Cs  Cs0  1  0.25000000  0.25000000  0.00000000  1.0
  Cs  Cs1  1  0.75000000  0.75000000  0.00000000  1.0
  N  N2  1  0.87421568  0.37421568  1.24843137  1.0
  N  N3  1  0.62578432  0.87421568  0.50000000  1.0
  N  N4  1  0.37421568  0.12578432  0.50000000  1.0
  N  N5  1  1.12578432  0.62578432  0.75156863  1.0
  N  N6  1  1.00000000  0.50000000  0.50000000  1.0
  N  N7  1  0.50000000  1.00000000  0.50000000  1.0
