# generated using pymatgen
data_KV4O8
_symmetry_space_group_name_H-M   'P 1'
_cell_length_a   7.27487178
_cell_length_b   7.27487178
_cell_length_c   10.08791998
_cell_angle_alpha   46.09186587
_cell_angle_beta   133.90813413
_cell_angle_gamma   157.17977902
_symmetry_Int_Tables_number   1
_chemical_formula_structural   KV4O8
_chemical_formula_sum   'K1 V4 O8'
_cell_volume   146.33810047
_cell_formula_units_Z   1
loop_
 _symmetry_equiv_pos_site_id
 _symmetry_equiv_pos_as_xyz
  1  'x, y, z'
loop_
 _atom_site_type_symbol
 _atom_site_label
 _atom_site_symmetry_multiplicity
 _atom_site_fract_x
 _atom_site_fract_y
 _atom_site_fract_z
 _atom_site_occupancy
  K  K0  1  0.00000000  0.00000000  0.00000000  1.0
  V  V1  1  0.14397542  -0.14397542  0.47274993  1.0
  V  V2  1  0.85602458  -0.85602458  0.52725007  1.0
  V  V3  1  1.32860412  -0.32860412  0.18471728  1.0
  V  V4  1  0.67139588  0.32860412  0.81528272  1.0
  O  O5  1  0.04116464  -0.04116464  0.70449534  1.0
  O  O6  1  0.95883536  -0.95883536  0.29550466  1.0
  O  O7  1  0.30138254  -0.30138254  0.95640005  1.0
  O  O8  1  0.69861746  -0.69861746  0.04359995  1.0
  O  O9  1  1.33616423  -0.33616423  0.37729854  1.0
  O  O10  1  0.66383577  0.33616423  0.62270146  1.0
  O  O11  1  1.34517418  -0.34517418  0.64627624  1.0
  O  O12  1  0.65482582  0.34517418  0.35372376  1.0
