# generated using pymatgen
data_BaRu2Xe5F22
_symmetry_space_group_name_H-M   'P 1'
_cell_length_a   10.04926007
_cell_length_b   9.44918011
_cell_length_c   9.44200776
_cell_angle_alpha   64.27525752
_cell_angle_beta   57.89699839
_cell_angle_gamma   57.82774408
_symmetry_Int_Tables_number   1
_chemical_formula_structural   BaRu2Xe5F22
_chemical_formula_sum   'Ba1 Ru2 Xe5 F22'
_cell_volume   628.44312818
_cell_formula_units_Z   1
loop_
 _symmetry_equiv_pos_site_id
 _symmetry_equiv_pos_as_xyz
  1  'x, y, z'
loop_
 _atom_site_type_symbol
 _atom_site_label
 _atom_site_symmetry_multiplicity
 _atom_site_fract_x
 _atom_site_fract_y
 _atom_site_fract_z
 _atom_site_occupancy
  Xe  Xe0  1  -0.50000000  0.50000000  0.50000000  1.0
  Xe  Xe1  1  1.00000000  -0.50000000  0.50000000  1.0
  Xe  Xe2  1  0.50000000  0.00000000  -0.00000000  1.0
  Xe  Xe3  1  0.50000000  -0.50000000  1.00000000  1.0
  Xe  Xe4  1  -0.00000000  0.00000000  0.50000000  1.0
  Ba  Ba5  1  0.00000000  0.00000000  0.00000000  1.0
  Ru  Ru6  1  0.00000000  0.50000000  -0.00000000  1.0
  Ru  Ru7  1  -0.50000000  1.00000000  0.50000000  1.0
  F  F8  1  -0.35590892  0.35590892  0.64409108  1.0
  F  F9  1  0.35590892  -0.35590892  1.35590892  1.0
  F  F10  1  1.05294379  -0.30280878  0.30280878  1.0
  F  F11  1  -0.05294379  0.30280878  0.69719122  1.0
  F  F12  1  0.69719122  0.05294379  -0.05294379  1.0
  F  F13  1  0.30280878  -0.05294379  1.05294379  1.0
  F  F14  1  -0.70030539  0.70030539  0.93791876  1.0
  F  F15  1  0.06208124  -0.06208124  1.70030539  1.0
  F  F16  1  0.70030539  -0.70030539  1.06208124  1.0
  F  F17  1  -0.06208124  0.06208124  0.29969461  1.0
  F  F18  1  -0.70259970  1.03819748  0.70259970  1.0
  F  F19  1  -0.03819748  0.70259970  0.03819748  1.0
  F  F20  1  0.03819748  0.29740030  -0.03819748  1.0
  F  F21  1  -0.29740030  0.96180252  0.29740030  1.0
  F  F22  1  -0.39974851  1.04593946  0.58792454  1.0
  F  F23  1  0.39974851  -0.04593946  1.41207546  1.0
  F  F24  1  1.04593946  -0.39974851  0.76588451  1.0
  F  F25  1  -0.04593946  0.39974851  0.23411549  1.0
  F  F26  1  0.76588451  -0.41207546  1.04593946  1.0
  F  F27  1  0.23411549  0.41207546  -0.04593946  1.0
  F  F28  1  -0.41207546  0.76588451  0.60025149  1.0
  F  F29  1  0.41207546  0.23411549  1.39974851  1.0
