# generated using pymatgen
data_Li2NiO3
_symmetry_space_group_name_H-M   'P 1'
_cell_length_a   4.90657463
_cell_length_b   4.90657463
_cell_length_c   5.00007409
_cell_angle_alpha   80.46809853
_cell_angle_beta   99.53190147
_cell_angle_gamma   60.06323508
_symmetry_Int_Tables_number   1
_chemical_formula_structural   Li2NiO3
_chemical_formula_sum   'Li4 Ni2 O6'
_cell_volume   98.43786059
_cell_formula_units_Z   2
loop_
 _symmetry_equiv_pos_site_id
 _symmetry_equiv_pos_as_xyz
  1  'x, y, z'
loop_
 _atom_site_type_symbol
 _atom_site_label
 _atom_site_symmetry_multiplicity
 _atom_site_fract_x
 _atom_site_fract_y
 _atom_site_fract_z
 _atom_site_occupancy
  Li  Li0  1  0.66388283  -0.33611717  0.50000000  1.0
  Li  Li1  1  1.33611717  0.33611717  0.50000000  1.0
  Li  Li2  1  0.00000000  -0.00000000  0.50000000  1.0
  Li  Li3  1  0.50000000  -0.50000000  0.00000000  1.0
  Ni  Ni4  1  0.83312712  -0.16687288  0.00000000  1.0
  Ni  Ni5  1  1.16687288  0.16687288  0.00000000  1.0
  O  O6  1  0.42572078  -0.06787520  0.77833762  1.0
  O  O7  1  1.06787520  0.57427922  0.77833762  1.0
  O  O8  1  0.93212480  -0.57427922  0.22166238  1.0
  O  O9  1  1.57427922  0.06787520  0.22166238  1.0
  O  O10  1  0.78200482  -0.78200482  0.77472698  1.0
  O  O11  1  0.21799518  -0.21799518  0.22527302  1.0
