# generated using pymatgen
data_Cs2V4O9
_symmetry_space_group_name_H-M   'P 1'
_cell_length_a   16.23009124
_cell_length_b   16.23009124
_cell_length_c   16.23009124
_cell_angle_alpha   159.77352396
_cell_angle_beta   159.77352396
_cell_angle_gamma   28.75715014
_symmetry_Int_Tables_number   1
_chemical_formula_structural   Cs2V4O9
_chemical_formula_sum   'Cs4 V8 O18'
_cell_volume   510.76570332
_cell_formula_units_Z   2
loop_
 _symmetry_equiv_pos_site_id
 _symmetry_equiv_pos_as_xyz
  1  'x, y, z'
loop_
 _atom_site_type_symbol
 _atom_site_label
 _atom_site_symmetry_multiplicity
 _atom_site_fract_x
 _atom_site_fract_y
 _atom_site_fract_z
 _atom_site_occupancy
  Cs  Cs0  1  1.14625939  1.12500000  1.52125939  1.0
  Cs  Cs1  1  1.37500000  0.85374061  0.97874061  1.0
  Cs  Cs2  1  0.87500000  1.39625939  1.02125939  1.0
  Cs  Cs3  1  0.60374061  0.62500000  0.47874061  1.0
  V  V4  1  1.33423742  1.14221545  1.42846107  1.0
  V  V5  1  1.03624562  1.10778455  0.69202197  1.0
  V  V6  1  0.65577635  0.96375438  1.07153893  1.0
  V  V7  1  0.85778455  1.28624562  1.19202197  1.0
  V  V8  1  1.41576258  1.34422365  1.30797803  1.0
  V  V9  1  0.71375438  0.90577635  0.57153893  1.0
  V  V10  1  1.09422365  0.66576258  0.80797803  1.0
  V  V11  1  0.89221545  0.58423742  0.92846107  1.0
  O  O12  1  1.18977904  1.35629980  1.57438378  1.0
  O  O13  1  0.96808398  0.89370020  1.33347923  1.0
  O  O14  1  1.36539526  1.03191602  0.92561622  1.0
  O  O15  1  0.64370020  1.21808398  0.83347923  1.0
  O  O16  1  0.56022096  0.63460474  0.66652077  1.0
  O  O17  1  0.78191602  0.61539526  0.42561622  1.0
  O  O18  1  1.38460474  0.81022096  1.16652077  1.0
  O  O19  1  1.10629980  1.43977904  1.07438378  1.0
  O  O20  1  1.32451949  1.25570234  1.43280358  1.0
  O  O21  1  0.92710124  0.99429766  0.56881716  1.0
  O  O22  1  0.64171591  1.07289876  1.06719642  1.0
  O  O23  1  0.74429766  1.17710124  1.06881716  1.0
  O  O24  1  1.42548051  1.35828409  1.43118284  1.0
  O  O25  1  0.82289876  0.89171591  0.56719642  1.0
  O  O26  1  1.10828409  0.67548051  0.93118284  1.0
  O  O27  1  1.00570234  0.57451949  0.93280358  1.0
  O  O28  1  0.75000000  0.25000000  0.50000000  1.0
  O  O29  1  1.00000000  1.00000000  1.00000000  1.0
