# generated using pymatgen
data_YBO3
_symmetry_space_group_name_H-M   'P 1'
_cell_length_a   6.58098312
_cell_length_b   6.58098312
_cell_length_c   8.87335995
_cell_angle_alpha   90.00000000
_cell_angle_beta   90.00000000
_cell_angle_gamma   59.93856449
_symmetry_Int_Tables_number   1
_chemical_formula_structural   YBO3
_chemical_formula_sum   'Y6 B6 O18'
_cell_volume   332.60677817
_cell_formula_units_Z   6
loop_
 _symmetry_equiv_pos_site_id
 _symmetry_equiv_pos_as_xyz
  1  'x, y, z'
loop_
 _atom_site_type_symbol
 _atom_site_label
 _atom_site_symmetry_multiplicity
 _atom_site_fract_x
 _atom_site_fract_y
 _atom_site_fract_z
 _atom_site_occupancy
  Y  Y0  1  -0.17061985  0.82938015  0.50000000  1.0
  Y  Y1  1  -0.17061985  0.82938015  -0.00000000  1.0
  Y  Y2  1  0.17061985  0.17061985  0.50000000  1.0
  Y  Y3  1  0.17061985  0.17061985  0.00000000  1.0
  Y  Y4  1  -0.50000000  0.50000000  0.50000000  1.0
  Y  Y5  1  -0.50000000  0.50000000  0.00000000  1.0
  B  B6  1  -0.40621455  1.16546219  0.25000000  1.0
  B  B7  1  0.16546219  0.59378545  0.75000000  1.0
  B  B8  1  -0.59378545  0.83453781  0.75000000  1.0
  B  B9  1  -0.16546219  0.40621455  0.25000000  1.0
  B  B10  1  -0.92360538  0.92360538  0.25000000  1.0
  B  B11  1  -0.07639462  0.07639462  0.75000000  1.0
  O  O12  1  -0.16525518  0.94753446  0.25000000  1.0
  O  O13  1  -0.05246554  0.83474482  0.75000000  1.0
  O  O14  1  -0.83474482  1.05246554  0.75000000  1.0
  O  O15  1  0.05246554  0.16525518  0.25000000  1.0
  O  O16  1  -0.38216933  0.38216933  0.25000000  1.0
  O  O17  1  -0.61783067  0.61783067  0.75000000  1.0
  O  O18  1  -0.51624231  1.16620074  0.39174689  1.0
  O  O19  1  0.16620074  0.48375769  0.60825311  1.0
  O  O20  1  -0.51624231  1.16620074  0.10825311  1.0
  O  O21  1  0.16620074  0.48375769  0.89174689  1.0
  O  O22  1  -0.48375769  0.83379926  0.60825311  1.0
  O  O23  1  -0.16620074  0.51624231  0.39174689  1.0
  O  O24  1  -0.48375769  0.83379926  0.89174689  1.0
  O  O25  1  -0.16620074  0.51624231  0.10825311  1.0
  O  O26  1  -0.18465221  0.18465221  0.89347416  1.0
  O  O27  1  -0.81534779  0.81534779  0.10652584  1.0
  O  O28  1  -0.18465221  0.18465221  0.60652584  1.0
  O  O29  1  -0.81534779  0.81534779  0.39347416  1.0
