# generated using pymatgen
data_Y2Mo4O15
_symmetry_space_group_name_H-M   'P 1'
_cell_length_a   6.98672162
_cell_length_b   9.66439535
_cell_length_c   10.73178141
_cell_angle_alpha   90.00000000
_cell_angle_beta   104.76213426
_cell_angle_gamma   90.00000000
_symmetry_Int_Tables_number   1
_chemical_formula_structural   Y2Mo4O15
_chemical_formula_sum   'Y4 Mo8 O30'
_cell_volume   700.71727578
_cell_formula_units_Z   2
loop_
 _symmetry_equiv_pos_site_id
 _symmetry_equiv_pos_as_xyz
  1  'x, y, z'
loop_
 _atom_site_type_symbol
 _atom_site_label
 _atom_site_symmetry_multiplicity
 _atom_site_fract_x
 _atom_site_fract_y
 _atom_site_fract_z
 _atom_site_occupancy
  Y  Y0  1  0.70734543  0.52382439  0.77595032  1.0
  Y  Y1  1  0.70734543  0.97617561  0.27595032  1.0
  Y  Y2  1  0.29265457  0.02382439  0.72404968  1.0
  Y  Y3  1  0.29265457  0.47617561  0.22404968  1.0
  Mo  Mo4  1  0.87962714  0.90922595  0.84392508  1.0
  Mo  Mo5  1  0.87962714  0.59077405  0.34392508  1.0
  Mo  Mo6  1  0.12037286  0.40922595  0.65607492  1.0
  Mo  Mo7  1  0.12037286  0.09077405  0.15607492  1.0
  Mo  Mo8  1  0.42378808  0.74315503  0.99166134  1.0
  Mo  Mo9  1  0.42378808  0.75684497  0.49166134  1.0
  Mo  Mo10  1  0.57621192  0.24315503  0.50833866  1.0
  Mo  Mo11  1  0.57621192  0.25684497  0.00833866  1.0
  O  O12  1  0.96104753  0.97472146  0.71326836  1.0
  O  O13  1  0.96104753  0.52527854  0.21326836  1.0
  O  O14  1  0.03895247  0.47472146  0.78673164  1.0
  O  O15  1  0.03895247  0.02527854  0.28673164  1.0
  O  O16  1  0.88434026  0.72792323  0.84940500  1.0
  O  O17  1  0.88434026  0.77207677  0.34940500  1.0
  O  O18  1  0.11565974  0.22792323  0.65059500  1.0
  O  O19  1  0.11565974  0.27207677  0.15059500  1.0
  O  O20  1  0.71478805  0.34851754  0.91758640  1.0
  O  O21  1  0.71478805  0.15148246  0.41758640  1.0
  O  O22  1  0.28521195  0.84851754  0.58241360  1.0
  O  O23  1  0.28521195  0.65148246  0.08241360  1.0
  O  O24  1  0.62876846  0.95287971  0.81269476  1.0
  O  O25  1  0.62876846  0.54712029  0.31269476  1.0
  O  O26  1  0.37123154  0.45287971  0.68730524  1.0
  O  O27  1  0.37123154  0.04712029  0.18730524  1.0
  O  O28  1  0.61494956  0.66455303  0.60111537  1.0
  O  O29  1  0.61494956  0.83544697  0.10111537  1.0
  O  O30  1  0.38505044  0.16455303  0.89888463  1.0
  O  O31  1  0.38505044  0.33544697  0.39888463  1.0
  O  O32  1  0.53249429  0.62748427  0.90258651  1.0
  O  O33  1  0.53249429  0.87251573  0.40258651  1.0
  O  O34  1  0.46750571  0.12748427  0.59741349  1.0
  O  O35  1  0.46750571  0.37251573  0.09741349  1.0
  O  O36  1  0.26844497  0.86260796  0.88375032  1.0
  O  O37  1  0.26844497  0.63739204  0.38375032  1.0
  O  O38  1  0.73155503  0.36260796  0.61624968  1.0
  O  O39  1  0.73155503  0.13739204  0.11624968  1.0
  O  O40  1  0.00000000  0.00000000  0.00000000  1.0
  O  O41  1  0.00000000  0.50000000  0.50000000  1.0
