# generated using pymatgen
data_AlBrO
_symmetry_space_group_name_H-M   'P 1'
_cell_length_a   5.67182178
_cell_length_b   9.51113318
_cell_length_c   5.04530689
_cell_angle_alpha   90.00000000
_cell_angle_beta   90.00000000
_cell_angle_gamma   90.00000000
_symmetry_Int_Tables_number   1
_chemical_formula_structural   AlBrO
_chemical_formula_sum   'Al4 Br4 O4'
_cell_volume   272.17136239
_cell_formula_units_Z   4
loop_
 _symmetry_equiv_pos_site_id
 _symmetry_equiv_pos_as_xyz
  1  'x, y, z'
loop_
 _atom_site_type_symbol
 _atom_site_label
 _atom_site_symmetry_multiplicity
 _atom_site_fract_x
 _atom_site_fract_y
 _atom_site_fract_z
 _atom_site_occupancy
  Al  Al0  1  0.40755530  0.08239643  0.49525364  1.0
  Al  Al1  1  0.90755530  0.91760357  0.49525364  1.0
  Al  Al2  1  0.59244470  0.91760357  -0.00474636  1.0
  Al  Al3  1  0.09244470  0.08239643  -0.00474636  1.0
  Br  Br4  1  0.50076069  0.30723045  0.58214644  1.0
  Br  Br5  1  1.00076069  0.69276955  0.58214644  1.0
  Br  Br6  1  0.49923931  0.69276955  0.08214644  1.0
  Br  Br7  1  -0.00076069  0.30723045  0.08214644  1.0
  O  O8  1  0.12974022  0.03017364  0.65159991  1.0
  O  O9  1  0.62974022  0.96982636  0.65159991  1.0
  O  O10  1  0.87025978  0.96982636  0.15159991  1.0
  O  O11  1  0.37025978  0.03017364  0.15159991  1.0
