# generated using pymatgen
data_HPbClO
_symmetry_space_group_name_H-M   'P 1'
_cell_length_a   7.19011371
_cell_length_b   4.10997503
_cell_length_c   9.93485613
_cell_angle_alpha   90.00000000
_cell_angle_beta   90.00000000
_cell_angle_gamma   90.00000000
_symmetry_Int_Tables_number   1
_chemical_formula_structural   HPbClO
_chemical_formula_sum   'H4 Pb4 Cl4 O4'
_cell_volume   293.58679962
_cell_formula_units_Z   4
loop_
 _symmetry_equiv_pos_site_id
 _symmetry_equiv_pos_as_xyz
  1  'x, y, z'
loop_
 _atom_site_type_symbol
 _atom_site_label
 _atom_site_symmetry_multiplicity
 _atom_site_fract_x
 _atom_site_fract_y
 _atom_site_fract_z
 _atom_site_occupancy
  H  H0  1  0.78747394  0.75000000  0.11466212  1.0
  H  H1  1  0.28747394  0.75000000  0.38533788  1.0
  H  H2  1  0.21252606  0.25000000  0.88533788  1.0
  H  H3  1  0.71252606  0.25000000  0.61466212  1.0
  Pb  Pb4  1  0.70650281  0.75000000  0.41541549  1.0
  Pb  Pb5  1  0.20650281  0.75000000  0.08458451  1.0
  Pb  Pb6  1  0.29349719  0.25000000  0.58458451  1.0
  Pb  Pb7  1  0.79349719  0.25000000  0.91541549  1.0
  Cl  Cl8  1  0.93391138  0.75000000  0.67510178  1.0
  Cl  Cl9  1  0.43391138  0.75000000  0.82489822  1.0
  Cl  Cl10  1  0.06608862  0.25000000  0.32489822  1.0
  Cl  Cl11  1  0.56608862  0.25000000  0.17510178  1.0
  O  O12  1  0.87266826  0.75000000  0.03813377  1.0
  O  O13  1  0.37266826  0.75000000  0.46186623  1.0
  O  O14  1  0.12733174  0.25000000  0.96186623  1.0
  O  O15  1  0.62733174  0.25000000  0.53813377  1.0
