# generated using pymatgen
data_MgO
_symmetry_space_group_name_H-M   'P 1'
_cell_length_a   11.41043154
_cell_length_b   11.41043154
_cell_length_c   11.41043154
_cell_angle_alpha   148.69322176
_cell_angle_beta   38.16879920
_cell_angle_gamma   158.71655898
_symmetry_Int_Tables_number   1
_chemical_formula_structural   MgO
_chemical_formula_sum   'Mg12 O12'
_cell_volume   279.81723419
_cell_formula_units_Z   12
loop_
 _symmetry_equiv_pos_site_id
 _symmetry_equiv_pos_as_xyz
  1  'x, y, z'
loop_
 _atom_site_type_symbol
 _atom_site_label
 _atom_site_symmetry_multiplicity
 _atom_site_fract_x
 _atom_site_fract_y
 _atom_site_fract_z
 _atom_site_occupancy
  Mg  Mg0  1  0.54762260  0.66618505  0.21380766  1.0
  Mg  Mg1  1  0.45237740  0.33381495  0.78619234  1.0
  Mg  Mg2  1  0.95237740  1.16618505  1.11856245  1.0
  Mg  Mg3  1  0.04762260  0.83381495  0.88143755  1.0
  Mg  Mg4  1  0.70940443  0.66556169  0.37496612  1.0
  Mg  Mg5  1  0.29059557  0.33443831  0.62503388  1.0
  Mg  Mg6  1  0.79059557  1.16556169  0.95615727  1.0
  Mg  Mg7  1  0.20940443  0.83443831  1.04384273  1.0
  Mg  Mg8  1  0.12814322  0.33526675  0.46340997  1.0
  Mg  Mg9  1  0.87185678  0.66473325  0.53659003  1.0
  Mg  Mg10  1  0.37185678  0.83526675  1.20712353  1.0
  Mg  Mg11  1  0.62814322  1.16473325  0.79287647  1.0
  O  O12  1  0.62823123  0.83478044  0.46301167  1.0
  O  O13  1  0.37176877  0.16521956  0.53698833  1.0
  O  O14  1  0.87176877  1.33478044  1.20654921  1.0
  O  O15  1  0.12823123  0.66521956  0.79345079  1.0
  O  O16  1  0.04756450  0.17121644  0.21878094  1.0
  O  O17  1  0.95243550  0.82878356  0.78121906  1.0
  O  O18  1  0.45243550  0.67121644  1.12365195  1.0
  O  O19  1  0.54756450  1.32878356  0.87634805  1.0
  O  O20  1  0.20938328  0.16557104  0.37495432  1.0
  O  O21  1  0.79061672  0.83442896  0.62504568  1.0
  O  O22  1  0.29061672  0.66557104  0.95618776  1.0
  O  O23  1  0.70938328  1.33442896  1.04381224  1.0
