# generated using pymatgen
data_OsO4
_symmetry_space_group_name_H-M   'P 1'
_cell_length_a   5.59587895
_cell_length_b   5.59587895
_cell_length_c   9.24960405
_cell_angle_alpha   66.72014490
_cell_angle_beta   113.27985510
_cell_angle_gamma   127.50403154
_symmetry_Int_Tables_number   1
_chemical_formula_structural   OsO4
_chemical_formula_sum   'Os2 O8'
_cell_volume   206.26318560
_cell_formula_units_Z   2
loop_
 _symmetry_equiv_pos_site_id
 _symmetry_equiv_pos_as_xyz
  1  'x, y, z'
loop_
 _atom_site_type_symbol
 _atom_site_label
 _atom_site_symmetry_multiplicity
 _atom_site_fract_x
 _atom_site_fract_y
 _atom_site_fract_z
 _atom_site_occupancy
  Os  Os0  1  0.75267583  0.75267583  0.25000000  1.0
  Os  Os1  1  0.24732417  0.24732417  0.75000000  1.0
  O  O2  1  0.84075625  0.06535032  0.30064684  1.0
  O  O3  1  0.93464968  -0.84075625  0.80064684  1.0
  O  O4  1  1.06535032  0.84075625  0.19935316  1.0
  O  O5  1  1.15924375  -0.06535032  0.69935316  1.0
  O  O6  1  1.44534683  -0.34064424  0.08931969  1.0
  O  O7  1  1.34064424  -0.44534683  0.58931969  1.0
  O  O8  1  0.65935576  0.44534683  0.41068031  1.0
  O  O9  1  0.55465317  0.34064424  0.91068031  1.0
