# generated using pymatgen
data_Si3CCl7
_symmetry_space_group_name_H-M   'P 1'
_cell_length_a   9.54977996
_cell_length_b   9.54977996
_cell_length_c   18.70463659
_cell_angle_alpha   77.27344514
_cell_angle_beta   102.72655486
_cell_angle_gamma   122.31834656
_symmetry_Int_Tables_number   1
_chemical_formula_structural   Si3CCl7
_chemical_formula_sum   'Si12 C4 Cl28'
_cell_volume   1395.24831046
_cell_formula_units_Z   4
loop_
 _symmetry_equiv_pos_site_id
 _symmetry_equiv_pos_as_xyz
  1  'x, y, z'
loop_
 _atom_site_type_symbol
 _atom_site_label
 _atom_site_symmetry_multiplicity
 _atom_site_fract_x
 _atom_site_fract_y
 _atom_site_fract_z
 _atom_site_occupancy
  Si  Si0  1  0.65606156  -0.25459287  0.68926308  1.0
  Si  Si1  1  1.25459287  0.34393844  0.18926308  1.0
  Si  Si2  1  0.74540713  0.65606156  0.81073692  1.0
  Si  Si3  1  0.34393844  0.25459287  0.31073692  1.0
  Si  Si4  1  0.90225215  0.02700253  0.77818257  1.0
  Si  Si5  1  0.97299747  0.09774785  0.27818257  1.0
  Si  Si6  1  1.02700253  0.90225215  0.72181743  1.0
  Si  Si7  1  0.09774785  -0.02700253  0.22181743  1.0
  Si  Si8  1  0.86180037  0.11066974  0.59780528  1.0
  Si  Si9  1  0.88933026  0.13819963  0.09780528  1.0
  Si  Si10  1  1.11066974  0.86180037  0.90219472  1.0
  Si  Si11  1  0.13819963  -0.11066974  0.40219472  1.0
  C  C12  1  0.85839951  -0.03943786  0.68167509  1.0
  C  C13  1  1.03943786  0.14160049  0.18167509  1.0
  C  C14  1  0.96056214  0.85839951  0.81832491  1.0
  C  C15  1  0.14160049  0.03943786  0.31832491  1.0
  Cl  Cl16  1  0.59276353  -0.39742393  0.88710778  1.0
  Cl  Cl17  1  1.39742393  0.40723647  0.38710778  1.0
  Cl  Cl18  1  0.60257607  0.59276353  0.61289222  1.0
  Cl  Cl19  1  0.40723647  0.39742393  0.11289222  1.0
  Cl  Cl20  1  0.73620292  -0.00856790  0.50572051  1.0
  Cl  Cl21  1  1.00856790  0.26379708  1.00572051  1.0
  Cl  Cl22  1  0.99143210  0.73620292  -0.00572051  1.0
  Cl  Cl23  1  0.26379708  0.00856790  0.49427949  1.0
  Cl  Cl24  1  0.71206059  0.00913326  0.81979331  1.0
  Cl  Cl25  1  0.99086674  0.28793941  0.31979331  1.0
  Cl  Cl26  1  1.00913326  0.71206059  0.68020669  1.0
  Cl  Cl27  1  0.28793941  -0.00913326  0.18020669  1.0
  Cl  Cl28  1  0.44895040  -0.23396704  0.67857689  1.0
  Cl  Cl29  1  1.23396704  0.55104960  0.17857689  1.0
  Cl  Cl30  1  0.76603296  0.44895040  0.82142311  1.0
  Cl  Cl31  1  0.55104960  0.23396704  0.32142311  1.0
  Cl  Cl32  1  0.74754115  0.22974273  0.61463252  1.0
  Cl  Cl33  1  0.77025727  0.25245885  0.11463252  1.0
  Cl  Cl34  1  1.22974273  0.74754115  0.88536748  1.0
  Cl  Cl35  1  0.25245885  -0.22974273  0.38536748  1.0
  Cl  Cl36  1  0.28974382  0.09842120  0.92516903  1.0
  Cl  Cl37  1  0.90157880  0.71025618  0.42516903  1.0
  Cl  Cl38  1  1.09842120  0.28974382  0.57483097  1.0
  Cl  Cl39  1  0.71025618  -0.09842120  0.07483097  1.0
  Cl  Cl40  1  0.26948854  0.09142649  0.71677210  1.0
  Cl  Cl41  1  0.90857351  0.73051146  0.21677210  1.0
  Cl  Cl42  1  1.09142649  0.26948854  0.78322790  1.0
  Cl  Cl43  1  0.73051146  -0.09142649  0.28322790  1.0
