# generated using pymatgen
data_SiMoP3O11
_symmetry_space_group_name_H-M   'P 1'
_cell_length_a   8.60172309
_cell_length_b   8.60172309
_cell_length_c   14.39380196
_cell_angle_alpha   72.61402537
_cell_angle_beta   107.38597463
_cell_angle_gamma   119.99908682
_symmetry_Int_Tables_number   1
_chemical_formula_structural   SiMoP3O11
_chemical_formula_sum   'Si4 Mo4 P12 O44'
_cell_volume   865.67924314
_cell_formula_units_Z   4
loop_
 _symmetry_equiv_pos_site_id
 _symmetry_equiv_pos_as_xyz
  1  'x, y, z'
loop_
 _atom_site_type_symbol
 _atom_site_label
 _atom_site_symmetry_multiplicity
 _atom_site_fract_x
 _atom_site_fract_y
 _atom_site_fract_z
 _atom_site_occupancy
  Si  Si0  1  0.96062318  0.53936513  0.88189030  1.0
  Si  Si1  1  0.53936513  -0.03937682  0.61810970  1.0
  Si  Si2  1  1.03937682  -0.53936513  0.11810970  1.0
  Si  Si3  1  1.46063487  0.03937682  0.38189030  1.0
  Mo  Mo4  1  0.84068087  0.65931350  0.52205162  1.0
  Mo  Mo5  1  0.65931350  -0.15931913  0.97794838  1.0
  Mo  Mo6  1  1.15931913  -0.65931350  0.47794838  1.0
  Mo  Mo7  1  1.34068650  0.15931913  0.02205162  1.0
  P  P8  1  1.91262201  -0.01154717  0.64134319  1.0
  P  P9  1  0.98845283  0.91262201  0.85865681  1.0
  P  P10  1  0.08737799  0.01154717  0.35865681  1.0
  P  P11  1  1.01154717  -0.91262201  0.14134319  1.0
  P  P12  1  1.21717732  0.58736944  0.64134600  1.0
  P  P13  1  0.58736944  0.21717732  0.85865400  1.0
  P  P14  1  0.78282268  -0.58736944  0.35865400  1.0
  P  P15  1  1.41263056  -0.21717732  0.14134600  1.0
  P  P16  1  1.28281612  0.51153701  0.85865787  1.0
  P  P17  1  0.51153701  0.28281612  0.64134213  1.0
  P  P18  1  0.71718388  -0.51153701  0.14134213  1.0
  P  P19  1  1.48846299  -0.28281612  0.35865787  1.0
  O  O20  1  1.02327693  0.56008747  0.61807703  1.0
  O  O21  1  0.56008747  0.02327693  0.88192297  1.0
  O  O22  1  0.97672307  -0.56008747  0.38192297  1.0
  O  O23  1  1.43991253  -0.02327693  0.11807703  1.0
  O  O24  1  0.65488652  0.47671535  0.61807973  1.0
  O  O25  1  0.47671535  -0.34511348  0.88192027  1.0
  O  O26  1  1.34511348  -0.47671535  0.38192027  1.0
  O  O27  1  1.52328465  0.34511348  0.11807973  1.0
  O  O28  1  0.93990545  0.84509900  0.61807917  1.0
  O  O29  1  1.84509900  -0.06009455  0.88192083  1.0
  O  O30  1  1.06009455  -0.84509900  0.38192083  1.0
  O  O31  1  0.15490100  0.06009455  0.11807917  1.0
  O  O32  1  0.72196228  0.46223882  0.42950544  1.0
  O  O33  1  1.46223882  -0.27803772  0.07049456  1.0
  O  O34  1  1.27803772  -0.46223882  0.57049456  1.0
  O  O35  1  0.53776118  0.27803772  0.92950544  1.0
  O  O36  1  1.03777803  0.83023425  0.42951708  1.0
  O  O37  1  1.83023425  0.03777803  0.07048292  1.0
  O  O38  1  0.96222197  -0.83023425  0.57048292  1.0
  O  O39  1  0.16976575  -0.03777803  0.92951708  1.0
  O  O40  1  1.66977530  -0.22195449  0.42951675  1.0
  O  O41  1  0.77804551  -0.33022470  0.07048325  1.0
  O  O42  1  0.33022470  0.22195449  0.57048325  1.0
  O  O43  1  1.22195449  0.33022470  0.92951675  1.0
  O  O44  1  1.70863117  -0.09274047  0.65829447  1.0
  O  O45  1  0.90725953  0.70863117  0.84170553  1.0
  O  O46  1  0.29136883  0.09274047  0.34170553  1.0
  O  O47  1  1.09274047  -0.70863117  0.15829447  1.0
  O  O48  1  0.03018236  0.03018236  0.75000000  1.0
  O  O49  1  0.96981764  0.96981764  0.25000000  1.0
  O  O50  1  1.00000000  -0.50000000  -0.00000000  1.0
  O  O51  1  0.50000000  0.00000000  0.50000000  1.0
  O  O52  1  0.79136567  0.35691842  0.84170899  1.0
  O  O53  1  0.35691842  -0.20863433  0.65829101  1.0
  O  O54  1  1.20863433  -0.35691842  0.15829101  1.0
  O  O55  1  1.64308158  0.20863433  0.34170899  1.0
  O  O56  1  1.14306723  0.59273562  0.84170445  1.0
  O  O57  1  0.59273562  0.14306723  0.65829555  1.0
  O  O58  1  0.85693277  -0.59273562  0.15829555  1.0
  O  O59  1  1.40726438  -0.14306723  0.34170445  1.0
  O  O60  1  1.24999987  -0.53019456  0.75000307  1.0
  O  O61  1  0.46980544  0.24999987  0.74999693  1.0
  O  O62  1  0.75000013  0.53019456  0.24999693  1.0
  O  O63  1  1.53019456  -0.24999987  0.25000307  1.0
