# generated using pymatgen
data_Ba3GdInS6
_symmetry_space_group_name_H-M   'P 1'
_cell_length_a   8.45371188
_cell_length_b   8.45371188
_cell_length_c   8.45371188
_cell_angle_alpha   92.64568977
_cell_angle_beta   92.64568977
_cell_angle_gamma   92.64568977
_symmetry_Int_Tables_number   1
_chemical_formula_structural   Ba3GdInS6
_chemical_formula_sum   'Ba6 Gd2 In2 S12'
_cell_volume   602.15298881
_cell_formula_units_Z   2
loop_
 _symmetry_equiv_pos_site_id
 _symmetry_equiv_pos_as_xyz
  1  'x, y, z'
loop_
 _atom_site_type_symbol
 _atom_site_label
 _atom_site_symmetry_multiplicity
 _atom_site_fract_x
 _atom_site_fract_y
 _atom_site_fract_z
 _atom_site_occupancy
  Ba  Ba0  1  0.86947549  1.25000000  -0.36947549  1.0
  Ba  Ba1  1  1.36947549  0.13052451  -0.25000000  1.0
  Ba  Ba2  1  0.75000000  0.36947549  0.13052451  1.0
  Ba  Ba3  1  1.25000000  0.63052451  -0.13052451  1.0
  Ba  Ba4  1  1.13052451  -0.25000000  0.36947549  1.0
  Ba  Ba5  1  0.63052451  0.86947549  0.25000000  1.0
  Gd  Gd6  1  0.25000000  0.25000000  0.25000000  1.0
  Gd  Gd7  1  0.75000000  0.75000000  0.75000000  1.0
  In  In8  1  0.50000000  0.50000000  0.50000000  1.0
  In  In9  1  0.00000000  0.00000000  0.00000000  1.0
  S  S10  1  1.19946195  0.41029333  -0.46030449  1.0
  S  S11  1  0.69946195  1.03969551  -0.08970667  1.0
  S  S12  1  0.96030449  0.08970667  0.30053805  1.0
  S  S13  1  1.46030449  -0.19946195  0.58970667  1.0
  S  S14  1  1.58970667  0.46030449  -0.19946195  1.0
  S  S15  1  1.08970667  0.30053805  -0.03969551  1.0
  S  S16  1  0.80053805  0.58970667  0.46030449  1.0
  S  S17  1  1.30053805  -0.03969551  0.08970667  1.0
  S  S18  1  0.53969551  1.19946195  -0.58970667  1.0
  S  S19  1  1.03969551  0.91029333  -0.30053805  1.0
  S  S20  1  0.91029333  0.69946195  0.03969551  1.0
  S  S21  1  0.41029333  0.53969551  0.19946195  1.0
