# generated using pymatgen
data_Te2SO7
_symmetry_space_group_name_H-M   'P 1'
_cell_length_a   9.00261178
_cell_length_b   7.04501955
_cell_length_c   4.69987868
_cell_angle_alpha   90.00000000
_cell_angle_beta   90.00000000
_cell_angle_gamma   90.00000000
_symmetry_Int_Tables_number   1
_chemical_formula_structural   Te2SO7
_chemical_formula_sum   'Te4 S2 O14'
_cell_volume   298.08311302
_cell_formula_units_Z   2
loop_
 _symmetry_equiv_pos_site_id
 _symmetry_equiv_pos_as_xyz
  1  'x, y, z'
loop_
 _atom_site_type_symbol
 _atom_site_label
 _atom_site_symmetry_multiplicity
 _atom_site_fract_x
 _atom_site_fract_y
 _atom_site_fract_z
 _atom_site_occupancy
  Te  Te0  1  0.19506063  0.67945317  0.27171642  1.0
  Te  Te1  1  0.69506063  0.32054683  0.77171642  1.0
  Te  Te2  1  0.80493937  0.67945317  0.27171642  1.0
  Te  Te3  1  0.30493937  0.32054683  0.77171642  1.0
  S  S4  1  0.50000000  -0.00523788  0.29649568  1.0
  S  S5  1  0.00000000  1.00523788  0.79649568  1.0
  O  O6  1  0.50000000  0.79771644  0.40592266  1.0
  O  O7  1  0.00000000  0.20228356  0.90592266  1.0
  O  O8  1  0.50000000  0.44197328  0.86939411  1.0
  O  O9  1  0.00000000  0.55802672  0.36939411  1.0
  O  O10  1  0.50000000  0.13679809  0.55367018  1.0
  O  O11  1  0.00000000  0.86320191  0.05367018  1.0
  O  O12  1  0.28426250  0.41964461  0.37399975  1.0
  O  O13  1  0.78426250  0.58035539  0.87399975  1.0
  O  O14  1  0.71573750  0.41964461  0.37399975  1.0
  O  O15  1  0.21573750  0.58035539  0.87399975  1.0
  O  O16  1  0.36220970  0.03397500  0.13404252  1.0
  O  O17  1  0.86220970  0.96602500  0.63404252  1.0
  O  O18  1  0.63779030  0.03397500  0.13404252  1.0
  O  O19  1  0.13779030  0.96602500  0.63404252  1.0
