# generated using pymatgen
data_Cu2H3NO6
_symmetry_space_group_name_H-M   'P 1'
_cell_length_a   5.87643120
_cell_length_b   6.12526418
_cell_length_c   7.01765471
_cell_angle_alpha   90.00000000
_cell_angle_beta   93.88695743
_cell_angle_gamma   90.00000000
_symmetry_Int_Tables_number   1
_chemical_formula_structural   Cu2H3NO6
_chemical_formula_sum   'Cu4 H6 N2 O12'
_cell_volume   252.01728803
_cell_formula_units_Z   2
loop_
 _symmetry_equiv_pos_site_id
 _symmetry_equiv_pos_as_xyz
  1  'x, y, z'
loop_
 _atom_site_type_symbol
 _atom_site_label
 _atom_site_symmetry_multiplicity
 _atom_site_fract_x
 _atom_site_fract_y
 _atom_site_fract_z
 _atom_site_occupancy
  O  O0  1  0.86559414  0.87635915  0.46601802  1.0
  O  O1  1  0.13440586  0.37635915  0.53398198  1.0
  O  O2  1  0.77618933  -0.00342410  0.74431991  1.0
  O  O3  1  0.22381067  0.49657590  0.25568009  1.0
  O  O4  1  0.35955818  0.66132141  0.51480777  1.0
  O  O5  1  0.64044182  0.16132141  0.48519223  1.0
  O  O6  1  0.31156412  0.74597495  0.88994108  1.0
  O  O7  1  0.68843588  0.24597495  0.11005892  1.0
  O  O8  1  0.69517754  0.75851284  0.10190411  1.0
  O  O9  1  0.30482246  0.25851284  0.89809589  1.0
  O  O10  1  0.89124883  0.49713787  0.85715401  1.0
  O  O11  1  0.10875117  -0.00286213  0.14284599  1.0
  H  H12  1  0.95066958  0.48579908  0.72967157  1.0
  H  H13  1  0.04933042  -0.01420092  0.27032843  1.0
  H  H14  1  0.72092215  0.78353953  0.24169583  1.0
  H  H15  1  0.27907785  0.28353953  0.75830417  1.0
  H  H16  1  0.31290276  0.72134683  0.74863475  1.0
  H  H17  1  0.68709724  0.22134683  0.25136525  1.0
  Cu  Cu18  1  0.50188540  0.50246637  1.01080342  1.0
  Cu  Cu19  1  0.49811460  0.00246637  -0.01080342  1.0
  Cu  Cu20  1  1.00111947  0.75262632  0.99050453  1.0
  Cu  Cu21  1  -0.00111947  0.25262632  0.00949547  1.0
  N  N22  1  0.75973372  1.01233975  0.56373834  1.0
  N  N23  1  0.24026628  0.51233975  0.43626166  1.0
