# generated using pymatgen
data_SrTi(PO4)2
_symmetry_space_group_name_H-M   'P 1'
_cell_length_a   8.79647766
_cell_length_b   8.79647766
_cell_length_c   8.30016377
_cell_angle_alpha   64.15561277
_cell_angle_beta   115.84438723
_cell_angle_gamma   145.40909301
_symmetry_Int_Tables_number   1
_chemical_formula_structural   SrTi(PO4)2
_chemical_formula_sum   'Sr2 Ti2 P4 O16'
_cell_volume   324.39190445
_cell_formula_units_Z   2
loop_
 _symmetry_equiv_pos_site_id
 _symmetry_equiv_pos_as_xyz
  1  'x, y, z'
loop_
 _atom_site_type_symbol
 _atom_site_label
 _atom_site_symmetry_multiplicity
 _atom_site_fract_x
 _atom_site_fract_y
 _atom_site_fract_z
 _atom_site_occupancy
  Sr  Sr0  1  0.17871470  0.17871470  0.75000000  1.0
  Sr  Sr1  1  0.82128530  0.82128530  0.25000000  1.0
  Ti  Ti2  1  1.50000000  -0.00000000  0.00000000  1.0
  Ti  Ti3  1  1.00000000  -0.50000000  0.50000000  1.0
  P  P4  1  1.59523433  -0.12081286  0.74762333  1.0
  P  P5  1  1.12081286  -0.59523433  0.24762333  1.0
  P  P6  1  0.87918714  -0.40476567  0.75237667  1.0
  P  P7  1  1.40476567  0.12081286  0.25237667  1.0
  O  O8  1  1.73688695  -0.16792254  0.89829760  1.0
  O  O9  1  1.16792254  -0.73688695  0.39829760  1.0
  O  O10  1  0.83207746  -0.26311305  0.60170240  1.0
  O  O11  1  1.26311305  0.16792254  0.10170240  1.0
  O  O12  1  1.79224010  0.12495368  0.60434492  1.0
  O  O13  1  0.87504632  -0.79224010  0.10434492  1.0
  O  O14  1  1.12495368  -0.20775990  0.89565508  1.0
  O  O15  1  1.20775990  -0.12495368  0.39565508  1.0
  O  O16  1  1.51667705  -0.05481315  0.81502627  1.0
  O  O17  1  1.05481315  -0.51667705  0.31502627  1.0
  O  O18  1  0.94518685  -0.48332295  0.68497373  1.0
  O  O19  1  1.48332295  0.05481315  0.18497373  1.0
  O  O20  1  1.62125466  0.32987881  0.84778866  1.0
  O  O21  1  0.67012119  -0.62125466  0.34778866  1.0
  O  O22  1  1.32987881  -0.37874534  0.65221134  1.0
  O  O23  1  1.37874534  -0.32987881  0.15221134  1.0
