# generated using pymatgen
data_Ce3Zr5O16
_symmetry_space_group_name_H-M   'P 1'
_cell_length_a   7.46910421
_cell_length_b   7.46910421
_cell_length_c   5.34046735
_cell_angle_alpha   90.00000000
_cell_angle_beta   90.00000000
_cell_angle_gamma   89.23085383
_symmetry_Int_Tables_number   1
_chemical_formula_structural   Ce3Zr5O16
_chemical_formula_sum   'Ce3 Zr5 O16'
_cell_volume   297.90457275
_cell_formula_units_Z   1
loop_
 _symmetry_equiv_pos_site_id
 _symmetry_equiv_pos_as_xyz
  1  'x, y, z'
loop_
 _atom_site_type_symbol
 _atom_site_label
 _atom_site_symmetry_multiplicity
 _atom_site_fract_x
 _atom_site_fract_y
 _atom_site_fract_z
 _atom_site_occupancy
  Ce  Ce0  1  -0.24280065  0.75719935  0.50000000  1.0
  Ce  Ce1  1  -0.50000000  0.50000000  0.00000000  1.0
  Ce  Ce2  1  0.24280065  1.24280065  0.50000000  1.0
  Zr  Zr3  1  0.50000000  1.00000000  -0.00119454  1.0
  Zr  Zr4  1  -0.74788159  0.74788159  0.50000000  1.0
  Zr  Zr5  1  0.00000000  1.00000000  0.00000000  1.0
  Zr  Zr6  1  -0.25211841  0.25211841  0.50000000  1.0
  Zr  Zr7  1  0.00000000  1.50000000  1.00119454  1.0
  O  O8  1  0.73917783  0.97996567  0.81035856  1.0
  O  O9  1  -0.52120520  0.74365456  0.72020145  1.0
  O  O10  1  0.51133984  0.77284123  0.22208928  1.0
  O  O11  1  -0.22097557  1.02326722  0.29088610  1.0
  O  O12  1  0.26082217  1.02003433  0.81035856  1.0
  O  O13  1  0.02326722  0.77902443  0.70911390  1.0
  O  O14  1  -0.02003433  1.73917783  0.18964144  1.0
  O  O15  1  0.22097557  0.97673278  0.29088610  1.0
  O  O16  1  -0.22715877  1.51133984  0.77791072  1.0
  O  O17  1  0.52120520  1.25634544  0.72020145  1.0
  O  O18  1  0.48866016  1.22715877  0.22208928  1.0
  O  O19  1  -0.25634544  0.47879480  0.27979855  1.0
  O  O20  1  0.22715877  1.48866016  0.77791072  1.0
  O  O21  1  -0.02326722  1.22097557  0.70911390  1.0
  O  O22  1  0.02003433  1.26082217  0.18964144  1.0
  O  O23  1  0.25634544  1.52120520  0.27979855  1.0
