# generated using pymatgen
data_KPt2S3
_symmetry_space_group_name_H-M   'P 1'
_cell_length_a   7.67810386
_cell_length_b   7.67810386
_cell_length_c   7.67810386
_cell_angle_alpha   55.66026418
_cell_angle_beta   55.66026418
_cell_angle_gamma   55.66026418
_symmetry_Int_Tables_number   1
_chemical_formula_structural   KPt2S3
_chemical_formula_sum   'K2 Pt4 S6'
_cell_volume   287.84319195
_cell_formula_units_Z   2
loop_
 _symmetry_equiv_pos_site_id
 _symmetry_equiv_pos_as_xyz
  1  'x, y, z'
loop_
 _atom_site_type_symbol
 _atom_site_label
 _atom_site_symmetry_multiplicity
 _atom_site_fract_x
 _atom_site_fract_y
 _atom_site_fract_z
 _atom_site_occupancy
  K  K0  1  0.80678048  0.80678048  0.80678048  1.0
  K  K1  1  1.19321952  1.19321952  0.19321952  1.0
  Pt  Pt2  1  0.50000000  0.00000000  -0.50000000  1.0
  Pt  Pt3  1  0.50000000  -0.50000000  0.00000000  1.0
  Pt  Pt4  1  0.00000000  0.50000000  -0.50000000  1.0
  Pt  Pt5  1  0.00000000  0.00000000  0.00000000  1.0
  S  S6  1  1.23040681  0.23040681  0.71815010  1.0
  S  S7  1  1.23040681  0.71815010  0.23040681  1.0
  S  S8  1  1.28184990  0.76959319  0.76959319  1.0
  S  S9  1  1.76959319  0.28184990  0.76959319  1.0
  S  S10  1  1.76959319  0.76959319  0.28184990  1.0
  S  S11  1  1.71815010  0.23040681  0.23040681  1.0
