# generated using pymatgen
data_V3O5
_symmetry_space_group_name_H-M   'P 1'
_cell_length_a   5.17315316
_cell_length_b   5.17315316
_cell_length_c   9.90963879
_cell_angle_alpha   90.00000000
_cell_angle_beta   90.00000000
_cell_angle_gamma   137.62824057
_symmetry_Int_Tables_number   1
_chemical_formula_structural   V3O5
_chemical_formula_sum   'V6 O10'
_cell_volume   178.72637811
_cell_formula_units_Z   2
loop_
 _symmetry_equiv_pos_site_id
 _symmetry_equiv_pos_as_xyz
  1  'x, y, z'
loop_
 _atom_site_type_symbol
 _atom_site_label
 _atom_site_symmetry_multiplicity
 _atom_site_fract_x
 _atom_site_fract_y
 _atom_site_fract_z
 _atom_site_occupancy
  V  V0  1  0.13522760  0.86477240  0.43802200  1.0
  V  V1  1  0.13522760  0.86477240  0.06197800  1.0
  V  V2  1  -0.13522760  0.13522760  0.93802200  1.0
  V  V3  1  -0.13522760  0.13522760  0.56197800  1.0
  V  V4  1  0.18995272  0.81004728  0.75000000  1.0
  V  V5  1  -0.18995272  0.18995272  0.25000000  1.0
  O  O6  1  0.04869016  0.95130984  0.88106299  1.0
  O  O7  1  0.04869016  0.95130984  0.61893701  1.0
  O  O8  1  -0.04869016  0.04869016  0.38106299  1.0
  O  O9  1  -0.04869016  0.04869016  0.11893701  1.0
  O  O10  1  0.31260630  0.68739370  0.93031808  1.0
  O  O11  1  0.31260630  0.68739370  0.56968192  1.0
  O  O12  1  -0.31260630  0.31260630  0.43031808  1.0
  O  O13  1  -0.31260630  0.31260630  0.06968192  1.0
  O  O14  1  -0.23616706  0.23616706  0.75000000  1.0
  O  O15  1  0.23616706  0.76383294  0.25000000  1.0
