# generated using pymatgen
data_Rb2IrF6
_symmetry_space_group_name_H-M   'P 1'
_cell_length_a   6.08385613
_cell_length_b   6.08385613
_cell_length_c   4.95703879
_cell_angle_alpha   90.00000000
_cell_angle_beta   90.00000000
_cell_angle_gamma   120.00000000
_symmetry_Int_Tables_number   1
_chemical_formula_structural   Rb2IrF6
_chemical_formula_sum   'Rb2 Ir1 F6'
_cell_volume   158.89521507
_cell_formula_units_Z   1
loop_
 _symmetry_equiv_pos_site_id
 _symmetry_equiv_pos_as_xyz
  1  'x, y, z'
loop_
 _atom_site_type_symbol
 _atom_site_label
 _atom_site_symmetry_multiplicity
 _atom_site_fract_x
 _atom_site_fract_y
 _atom_site_fract_z
 _atom_site_occupancy
  Rb  Rb0  1  0.33333333  0.66666667  0.29032666  1.0
  Rb  Rb1  1  0.66666667  0.33333333  0.70967334  1.0
  Ir  Ir2  1  0.00000000  0.00000000  0.00000000  1.0
  F  F3  1  0.31252582  0.15626291  0.21834051  1.0
  F  F4  1  0.15626291  0.31252582  0.78165949  1.0
  F  F5  1  0.15626291  0.84373709  0.78165949  1.0
  F  F6  1  0.84373709  0.15626291  0.21834051  1.0
  F  F7  1  0.84373709  0.68747418  0.21834051  1.0
  F  F8  1  0.68747418  0.84373709  0.78165949  1.0
