# generated using pymatgen
data_KLi(C2N3)2
_symmetry_space_group_name_H-M   'P 1'
_cell_length_a   8.82231538
_cell_length_b   8.82231538
_cell_length_c   8.82231538
_cell_angle_alpha   131.58204130
_cell_angle_beta   131.58204130
_cell_angle_gamma   70.88995367
_symmetry_Int_Tables_number   1
_chemical_formula_structural   KLi(C2N3)2
_chemical_formula_sum   'K2 Li2 C8 N12'
_cell_volume   376.26898649
_cell_formula_units_Z   2
loop_
 _symmetry_equiv_pos_site_id
 _symmetry_equiv_pos_as_xyz
  1  'x, y, z'
loop_
 _atom_site_type_symbol
 _atom_site_label
 _atom_site_symmetry_multiplicity
 _atom_site_fract_x
 _atom_site_fract_y
 _atom_site_fract_z
 _atom_site_occupancy
  K  K0  1  0.25000000  0.25000000  0.00000000  1.0
  K  K1  1  0.75000000  0.75000000  1.00000000  1.0
  Li  Li2  1  0.75000000  0.25000000  0.50000000  1.0
  Li  Li3  1  0.25000000  0.75000000  0.50000000  1.0
  C  C4  1  0.61149668  0.72764145  0.50000000  1.0
  C  C5  1  1.22764145  1.11149668  1.50000000  1.0
  C  C6  1  1.11149668  0.61149668  0.88385524  1.0
  C  C7  1  0.72764145  1.22764145  1.11614476  1.0
  C  C8  1  0.38850332  0.27235855  0.50000000  1.0
  C  C9  1  0.77235855  0.88850332  1.50000000  1.0
  C  C10  1  0.88850332  0.38850332  1.11614476  1.0
  C  C11  1  0.27235855  0.77235855  0.88385524  1.0
  N  N12  1  0.74785186  0.75214814  1.50000000  1.0
  N  N13  1  0.25214814  0.24785186  0.50000000  1.0
  N  N14  1  0.24785186  0.74785186  0.99570371  1.0
  N  N15  1  0.75214814  0.25214814  1.00429629  1.0
  N  N16  1  0.49552917  0.68859844  0.50000000  1.0
  N  N17  1  1.18859844  0.99552917  1.50000000  1.0
  N  N18  1  0.99552917  0.49552917  0.80693074  1.0
  N  N19  1  0.68859844  1.18859844  1.19306926  1.0
  N  N20  1  0.50447083  0.31140156  0.50000000  1.0
  N  N21  1  0.81140156  1.00447083  1.50000000  1.0
  N  N22  1  1.00447083  0.50447083  1.19306926  1.0
  N  N23  1  0.31140156  0.81140156  0.80693074  1.0
