# generated using pymatgen
data_LaYbO3
_symmetry_space_group_name_H-M   'P 1'
_cell_length_a   6.06638937
_cell_length_b   8.54818997
_cell_length_c   5.86351160
_cell_angle_alpha   90.00000000
_cell_angle_beta   90.00000000
_cell_angle_gamma   90.00000000
_symmetry_Int_Tables_number   1
_chemical_formula_structural   LaYbO3
_chemical_formula_sum   'La4 Yb4 O12'
_cell_volume   304.06206110
_cell_formula_units_Z   4
loop_
 _symmetry_equiv_pos_site_id
 _symmetry_equiv_pos_as_xyz
  1  'x, y, z'
loop_
 _atom_site_type_symbol
 _atom_site_label
 _atom_site_symmetry_multiplicity
 _atom_site_fract_x
 _atom_site_fract_y
 _atom_site_fract_z
 _atom_site_occupancy
  La  La0  1  0.04955026  0.75000000  0.51706073  1.0
  La  La1  1  0.54955026  0.75000000  0.98293927  1.0
  La  La2  1  0.95044974  0.25000000  0.48293927  1.0
  La  La3  1  0.45044974  0.25000000  0.01706073  1.0
  Yb  Yb4  1  0.50000000  0.00000000  0.50000000  1.0
  Yb  Yb5  1  0.50000000  0.50000000  0.50000000  1.0
  Yb  Yb6  1  0.00000000  0.00000000  0.00000000  1.0
  Yb  Yb7  1  0.00000000  0.50000000  0.00000000  1.0
  O  O8  1  0.30102581  0.93081212  0.80259129  1.0
  O  O9  1  0.30102581  0.56918788  0.80259129  1.0
  O  O10  1  0.80102581  0.93081212  0.69740871  1.0
  O  O11  1  0.80102581  0.56918788  0.69740871  1.0
  O  O12  1  0.69897419  0.43081212  0.19740871  1.0
  O  O13  1  0.69897419  0.06918788  0.19740871  1.0
  O  O14  1  0.19897419  0.43081212  0.30259129  1.0
  O  O15  1  0.19897419  0.06918788  0.30259129  1.0
  O  O16  1  0.94060110  0.75000000  0.12734285  1.0
  O  O17  1  0.44060110  0.75000000  0.37265715  1.0
  O  O18  1  0.05939890  0.25000000  0.87265715  1.0
  O  O19  1  0.55939890  0.25000000  0.62734285  1.0
