# generated using pymatgen
data_Ca2In4Au3
_symmetry_space_group_name_H-M   'P 1'
_cell_length_a   14.97868943
_cell_length_b   4.48285472
_cell_length_c   12.96922036
_cell_angle_alpha   90.00000000
_cell_angle_beta   90.00000000
_cell_angle_gamma   90.00000000
_symmetry_Int_Tables_number   1
_chemical_formula_structural   Ca2In4Au3
_chemical_formula_sum   'Ca8 In16 Au12'
_cell_volume   870.84798300
_cell_formula_units_Z   4
loop_
 _symmetry_equiv_pos_site_id
 _symmetry_equiv_pos_as_xyz
  1  'x, y, z'
loop_
 _atom_site_type_symbol
 _atom_site_label
 _atom_site_symmetry_multiplicity
 _atom_site_fract_x
 _atom_site_fract_y
 _atom_site_fract_z
 _atom_site_occupancy
  Ca  Ca0  1  0.48088045  0.75000000  0.28657717  1.0
  Ca  Ca1  1  0.98088045  0.75000000  0.21342283  1.0
  Ca  Ca2  1  0.51911955  0.25000000  0.71342283  1.0
  Ca  Ca3  1  0.01911955  0.25000000  0.78657717  1.0
  Ca  Ca4  1  0.20918129  0.75000000  0.41548746  1.0
  Ca  Ca5  1  0.70918129  0.75000000  0.08451254  1.0
  Ca  Ca6  1  0.79081871  0.25000000  0.58451254  1.0
  Ca  Ca7  1  0.29081871  0.25000000  0.91548746  1.0
  In  In8  1  0.49482793  0.75000000  0.91274511  1.0
  In  In9  1  0.99482793  0.75000000  0.58725489  1.0
  In  In10  1  0.50517207  0.25000000  0.08725489  1.0
  In  In11  1  0.00517207  0.25000000  0.41274511  1.0
  In  In12  1  0.42894639  0.75000000  0.53977826  1.0
  In  In13  1  0.92894639  0.75000000  0.96022174  1.0
  In  In14  1  0.57105361  0.25000000  0.46022174  1.0
  In  In15  1  0.07105361  0.25000000  0.03977826  1.0
  In  In16  1  0.19661624  0.75000000  0.13052802  1.0
  In  In17  1  0.69661624  0.75000000  0.36947198  1.0
  In  In18  1  0.80338376  0.25000000  0.86947198  1.0
  In  In19  1  0.30338376  0.25000000  0.63052802  1.0
  In  In20  1  0.18040534  0.75000000  0.71711608  1.0
  In  In21  1  0.68040534  0.75000000  0.78288392  1.0
  In  In22  1  0.81959466  0.25000000  0.28288392  1.0
  In  In23  1  0.31959466  0.25000000  0.21711608  1.0
  Au  Au24  1  0.37825446  0.75000000  0.08248407  1.0
  Au  Au25  1  0.87825446  0.75000000  0.41751593  1.0
  Au  Au26  1  0.62174554  0.25000000  0.91751593  1.0
  Au  Au27  1  0.12174554  0.25000000  0.58248407  1.0
  Au  Au28  1  0.37077758  0.75000000  0.75338469  1.0
  Au  Au29  1  0.87077758  0.75000000  0.74661531  1.0
  Au  Au30  1  0.62922242  0.25000000  0.24661531  1.0
  Au  Au31  1  0.12922242  0.25000000  0.25338469  1.0
  Au  Au32  1  0.12574851  0.75000000  0.92054034  1.0
  Au  Au33  1  0.62574851  0.75000000  0.57945966  1.0
  Au  Au34  1  0.87425149  0.25000000  0.07945966  1.0
  Au  Au35  1  0.37425149  0.25000000  0.42054034  1.0
