# generated using pymatgen
data_Na4MgC6(SN)6
_symmetry_space_group_name_H-M   'P 1'
_cell_length_a   8.82698059
_cell_length_b   8.82698059
_cell_length_c   14.08821207
_cell_angle_alpha   90.00000000
_cell_angle_beta   90.00000000
_cell_angle_gamma   120.00000000
_symmetry_Int_Tables_number   1
_chemical_formula_structural   Na4MgC6(SN)6
_chemical_formula_sum   'Na8 Mg2 C12 S12 N12'
_cell_volume   950.62855541
_cell_formula_units_Z   2
loop_
 _symmetry_equiv_pos_site_id
 _symmetry_equiv_pos_as_xyz
  1  'x, y, z'
loop_
 _atom_site_type_symbol
 _atom_site_label
 _atom_site_symmetry_multiplicity
 _atom_site_fract_x
 _atom_site_fract_y
 _atom_site_fract_z
 _atom_site_occupancy
  Na  Na0  1  0.33333333  0.66666667  0.02532594  1.0
  Na  Na1  1  0.33333333  0.66666667  0.47467406  1.0
  Na  Na2  1  0.66666667  0.33333333  0.52532594  1.0
  Na  Na3  1  0.66666667  0.33333333  0.97467406  1.0
  Na  Na4  1  0.66666667  0.33333333  0.25000000  1.0
  Na  Na5  1  0.33333333  0.66666667  0.75000000  1.0
  Na  Na6  1  0.00000000  0.00000000  0.00000000  1.0
  Na  Na7  1  0.00000000  0.00000000  0.50000000  1.0
  Mg  Mg8  1  0.33333333  0.66666667  0.25000000  1.0
  Mg  Mg9  1  0.66666667  0.33333333  0.75000000  1.0
  C  C10  1  0.65233868  0.65415853  0.13538630  1.0
  C  C11  1  0.65233868  -0.00181985  0.36461370  1.0
  C  C12  1  0.65415853  0.65233868  0.63538630  1.0
  C  C13  1  0.65415853  1.00181985  0.86461370  1.0
  C  C14  1  1.00181985  0.65415853  0.36461370  1.0
  C  C15  1  1.00181985  0.34766132  0.13538630  1.0
  C  C16  1  0.34584147  0.34766132  0.36461370  1.0
  C  C17  1  0.34584147  -0.00181985  0.13538630  1.0
  C  C18  1  0.34766132  1.00181985  0.63538630  1.0
  C  C19  1  0.34766132  0.34584147  0.86461370  1.0
  C  C20  1  -0.00181985  0.65233868  0.86461370  1.0
  C  C21  1  -0.00181985  0.34584147  0.63538630  1.0
  S  S22  1  0.82676312  0.64416341  0.10634104  1.0
  S  S23  1  0.82676312  0.18259971  0.39365896  1.0
  S  S24  1  0.64416341  0.82676312  0.60634104  1.0
  S  S25  1  0.64416341  0.81740029  0.89365896  1.0
  S  S26  1  0.81740029  0.64416341  0.39365896  1.0
  S  S27  1  0.81740029  0.17323688  0.10634104  1.0
  S  S28  1  0.35583659  0.17323688  0.39365896  1.0
  S  S29  1  0.35583659  0.18259971  0.10634104  1.0
  S  S30  1  0.17323688  0.81740029  0.60634104  1.0
  S  S31  1  0.17323688  0.35583659  0.89365896  1.0
  S  S32  1  0.18259971  0.82676312  0.89365896  1.0
  S  S33  1  0.18259971  0.35583659  0.60634104  1.0
  N  N34  1  0.33932080  0.86593935  0.15756917  1.0
  N  N35  1  0.33932080  0.47338145  0.34243083  1.0
  N  N36  1  0.86593935  0.33932080  0.65756917  1.0
  N  N37  1  0.86593935  0.52661855  0.84243083  1.0
  N  N38  1  0.52661855  0.86593935  0.34243083  1.0
  N  N39  1  0.52661855  0.66067920  0.15756917  1.0
  N  N40  1  0.13406065  0.66067920  0.34243083  1.0
  N  N41  1  0.13406065  0.47338145  0.15756917  1.0
  N  N42  1  0.66067920  0.52661855  0.65756917  1.0
  N  N43  1  0.66067920  0.13406065  0.84243083  1.0
  N  N44  1  0.47338145  0.33932080  0.84243083  1.0
  N  N45  1  0.47338145  0.13406065  0.65756917  1.0
