# generated using pymatgen
data_CuGeO3
_symmetry_space_group_name_H-M   'P 1'
_cell_length_a   9.19987709
_cell_length_b   2.98812666
_cell_length_c   4.99898296
_cell_angle_alpha   90.00000000
_cell_angle_beta   90.00000000
_cell_angle_gamma   90.00000000
_symmetry_Int_Tables_number   1
_chemical_formula_structural   CuGeO3
_chemical_formula_sum   'Cu2 Ge2 O6'
_cell_volume   137.42403092
_cell_formula_units_Z   2
loop_
 _symmetry_equiv_pos_site_id
 _symmetry_equiv_pos_as_xyz
  1  'x, y, z'
loop_
 _atom_site_type_symbol
 _atom_site_label
 _atom_site_symmetry_multiplicity
 _atom_site_fract_x
 _atom_site_fract_y
 _atom_site_fract_z
 _atom_site_occupancy
  O  O0  1  0.75000000  0.00000000  0.08447439  1.0
  O  O1  1  0.25000000  0.00000000  0.91552561  1.0
  O  O2  1  0.90991268  0.50000000  0.68443985  1.0
  O  O3  1  0.40991268  0.50000000  0.31556015  1.0
  O  O4  1  0.59008732  0.50000000  0.68443985  1.0
  O  O5  1  0.09008732  0.50000000  0.31556015  1.0
  Cu  Cu6  1  0.00000000  0.00000000  0.50000000  1.0
  Cu  Cu7  1  0.50000000  0.00000000  0.50000000  1.0
  Ge  Ge8  1  0.75000000  0.50000000  -0.11602915  1.0
  Ge  Ge9  1  0.25000000  0.50000000  1.11602915  1.0
