# generated using pymatgen
data_Y(MnH3)2
_symmetry_space_group_name_H-M   'P 1'
_cell_length_a   5.02904983
_cell_length_b   5.02904983
_cell_length_c   5.02904983
_cell_angle_alpha   60.00000000
_cell_angle_beta   60.00000000
_cell_angle_gamma   60.00000000
_symmetry_Int_Tables_number   1
_chemical_formula_structural   Y(MnH3)2
_chemical_formula_sum   'Y1 Mn2 H6'
_cell_volume   89.93791595
_cell_formula_units_Z   1
loop_
 _symmetry_equiv_pos_site_id
 _symmetry_equiv_pos_as_xyz
  1  'x, y, z'
loop_
 _atom_site_type_symbol
 _atom_site_label
 _atom_site_symmetry_multiplicity
 _atom_site_fract_x
 _atom_site_fract_y
 _atom_site_fract_z
 _atom_site_occupancy
  Y  Y0  1  -0.00000000  -0.00000000  -0.00000000  1.0
  Mn  Mn1  1  0.75000000  0.75000000  -0.25000000  1.0
  Mn  Mn2  1  1.25000000  0.25000000  0.25000000  1.0
  H  H3  1  -0.71076520  0.71076520  0.71076520  1.0
  H  H4  1  -0.28923480  0.28923480  0.71076520  1.0
  H  H5  1  0.71076520  0.71076520  -0.71076520  1.0
  H  H6  1  0.28923480  1.28923480  -0.28923480  1.0
  H  H7  1  0.28923480  -0.28923480  1.28923480  1.0
  H  H8  1  -0.28923480  0.28923480  0.28923480  1.0
