# generated using pymatgen
data_Cu3TeS3Cl
_symmetry_space_group_name_H-M   'P 1'
_cell_length_a   5.50448474
_cell_length_b   5.50448474
_cell_length_c   5.50448474
_cell_angle_alpha   85.18733762
_cell_angle_beta   85.18733762
_cell_angle_gamma   85.18733762
_symmetry_Int_Tables_number   1
_chemical_formula_structural   Cu3TeS3Cl
_chemical_formula_sum   'Cu3 Te1 S3 Cl1'
_cell_volume   165.11150379
_cell_formula_units_Z   1
loop_
 _symmetry_equiv_pos_site_id
 _symmetry_equiv_pos_as_xyz
  1  'x, y, z'
loop_
 _atom_site_type_symbol
 _atom_site_label
 _atom_site_symmetry_multiplicity
 _atom_site_fract_x
 _atom_site_fract_y
 _atom_site_fract_z
 _atom_site_occupancy
  Cu  Cu0  1  0.37189290  0.79888035  -0.20111965  1.0
  Cu  Cu1  1  0.79888035  0.37189290  -0.20111965  1.0
  Cu  Cu2  1  0.79888035  0.79888035  -0.62810710  1.0
  Te  Te3  1  1.31879976  1.31879976  0.31879976  1.0
  S  S4  1  0.09379014  0.59974697  -0.40025303  1.0
  S  S5  1  0.59974697  0.09379014  -0.40025303  1.0
  S  S6  1  0.59974697  0.59974697  -0.90620986  1.0
  Cl  Cl7  1  0.00516257  0.00516257  0.00516257  1.0
