# generated using pymatgen
data_Ca5Rh
_symmetry_space_group_name_H-M   'P 1'
_cell_length_a   7.59087041
_cell_length_b   15.98234660
_cell_length_c   6.76583879
_cell_angle_alpha   90.00000000
_cell_angle_beta   90.00000000
_cell_angle_gamma   90.00000000
_symmetry_Int_Tables_number   1
_chemical_formula_structural   Ca5Rh
_chemical_formula_sum   'Ca20 Rh4'
_cell_volume   820.83103335
_cell_formula_units_Z   4
loop_
 _symmetry_equiv_pos_site_id
 _symmetry_equiv_pos_as_xyz
  1  'x, y, z'
loop_
 _atom_site_type_symbol
 _atom_site_label
 _atom_site_symmetry_multiplicity
 _atom_site_fract_x
 _atom_site_fract_y
 _atom_site_fract_z
 _atom_site_occupancy
  Ca  Ca0  1  0.46408536  0.35521137  0.82434083  1.0
  Ca  Ca1  1  0.46408536  0.14478863  0.82434083  1.0
  Ca  Ca2  1  0.96408536  0.35521137  0.67565917  1.0
  Ca  Ca3  1  0.96408536  0.14478863  0.67565917  1.0
  Ca  Ca4  1  0.53591464  0.85521137  0.17565917  1.0
  Ca  Ca5  1  0.53591464  0.64478863  0.17565917  1.0
  Ca  Ca6  1  0.03591464  0.85521137  0.32434083  1.0
  Ca  Ca7  1  0.03591464  0.64478863  0.32434083  1.0
  Ca  Ca8  1  0.19109859  0.93604780  0.85364164  1.0
  Ca  Ca9  1  0.19109859  0.56395220  0.85364164  1.0
  Ca  Ca10  1  0.69109859  0.93604780  0.64635836  1.0
  Ca  Ca11  1  0.69109859  0.56395220  0.64635836  1.0
  Ca  Ca12  1  0.80890141  0.43604780  0.14635836  1.0
  Ca  Ca13  1  0.80890141  0.06395220  0.14635836  1.0
  Ca  Ca14  1  0.30890141  0.43604780  0.35364164  1.0
  Ca  Ca15  1  0.30890141  0.06395220  0.35364164  1.0
  Ca  Ca16  1  0.40718025  0.75000000  0.65326289  1.0
  Ca  Ca17  1  0.90718025  0.75000000  0.84673711  1.0
  Ca  Ca18  1  0.59281975  0.25000000  0.34673711  1.0
  Ca  Ca19  1  0.09281975  0.25000000  0.15326289  1.0
  Rh  Rh20  1  0.24131524  0.75000000  0.03601670  1.0
  Rh  Rh21  1  0.74131524  0.75000000  0.46398330  1.0
  Rh  Rh22  1  0.75868476  0.25000000  0.96398330  1.0
  Rh  Rh23  1  0.25868476  0.25000000  0.53601670  1.0
