# generated using pymatgen
data_Sn2Rh
_symmetry_space_group_name_H-M   'P 1'
_cell_length_a   6.97838351
_cell_length_b   6.97838351
_cell_length_c   6.38012596
_cell_angle_alpha   90.00000000
_cell_angle_beta   90.00000000
_cell_angle_gamma   54.48158165
_symmetry_Int_Tables_number   1
_chemical_formula_structural   Sn2Rh
_chemical_formula_sum   'Sn8 Rh4'
_cell_volume   252.88632024
_cell_formula_units_Z   4
loop_
 _symmetry_equiv_pos_site_id
 _symmetry_equiv_pos_as_xyz
  1  'x, y, z'
loop_
 _atom_site_type_symbol
 _atom_site_label
 _atom_site_symmetry_multiplicity
 _atom_site_fract_x
 _atom_site_fract_y
 _atom_site_fract_z
 _atom_site_occupancy
  Sn  Sn0  1  -0.33616422  0.33616422  0.16342785  1.0
  Sn  Sn1  1  -0.83616422  0.83616422  0.33657215  1.0
  Sn  Sn2  1  -0.66383578  0.66383578  0.83657215  1.0
  Sn  Sn3  1  -0.16383578  0.16383578  0.66342785  1.0
  Sn  Sn4  1  0.50568323  0.99431677  0.25000000  1.0
  Sn  Sn5  1  0.00568323  1.49431677  0.25000000  1.0
  Sn  Sn6  1  -0.00568323  1.50568323  0.75000000  1.0
  Sn  Sn7  1  0.49431677  1.00568323  0.75000000  1.0
  Rh  Rh8  1  0.38214927  1.38214927  0.50000000  1.0
  Rh  Rh9  1  0.88214927  0.88214927  0.00000000  1.0
  Rh  Rh10  1  0.61785073  0.61785073  0.50000000  1.0
  Rh  Rh11  1  0.11785073  1.11785073  0.00000000  1.0
