# generated using pymatgen
data_Si(NiO2)2
_symmetry_space_group_name_H-M   'P 1'
_cell_length_a   10.24162943
_cell_length_b   5.96171663
_cell_length_c   4.74632412
_cell_angle_alpha   90.00000000
_cell_angle_beta   90.00000000
_cell_angle_gamma   90.00000000
_symmetry_Int_Tables_number   1
_chemical_formula_structural   Si(NiO2)2
_chemical_formula_sum   'Si4 Ni8 O16'
_cell_volume   289.79959862
_cell_formula_units_Z   4
loop_
 _symmetry_equiv_pos_site_id
 _symmetry_equiv_pos_as_xyz
  1  'x, y, z'
loop_
 _atom_site_type_symbol
 _atom_site_label
 _atom_site_symmetry_multiplicity
 _atom_site_fract_x
 _atom_site_fract_y
 _atom_site_fract_z
 _atom_site_occupancy
  Si  Si0  1  0.59431471  0.25000000  0.07306911  1.0
  Si  Si1  1  0.09431471  0.25000000  0.42693089  1.0
  Si  Si2  1  0.40568529  0.75000000  0.92693089  1.0
  Si  Si3  1  0.90568529  0.75000000  0.57306911  1.0
  Ni  Ni4  1  0.77365440  0.25000000  0.50668551  1.0
  Ni  Ni5  1  0.27365440  0.25000000  0.99331449  1.0
  Ni  Ni6  1  0.22634560  0.75000000  0.49331449  1.0
  Ni  Ni7  1  0.72634560  0.75000000  0.00668551  1.0
  Ni  Ni8  1  0.00000000  0.50000000  0.00000000  1.0
  Ni  Ni9  1  0.00000000  0.00000000  0.00000000  1.0
  Ni  Ni10  1  0.50000000  0.50000000  0.50000000  1.0
  Ni  Ni11  1  0.50000000  0.00000000  0.50000000  1.0
  O  O12  1  0.66278673  0.47156425  0.22599026  1.0
  O  O13  1  0.66278673  0.02843575  0.22599026  1.0
  O  O14  1  0.16278673  0.47156425  0.27400974  1.0
  O  O15  1  0.16278673  0.02843575  0.27400974  1.0
  O  O16  1  0.33721327  0.97156425  0.77400974  1.0
  O  O17  1  0.33721327  0.52843575  0.77400974  1.0
  O  O18  1  0.83721327  0.97156425  0.72599026  1.0
  O  O19  1  0.83721327  0.52843575  0.72599026  1.0
  O  O20  1  0.94447793  0.25000000  0.28484412  1.0
  O  O21  1  0.44447793  0.25000000  0.21515588  1.0
  O  O22  1  0.05552207  0.75000000  0.71515588  1.0
  O  O23  1  0.55552207  0.75000000  0.78484412  1.0
  O  O24  1  0.59502178  0.25000000  0.72803855  1.0
  O  O25  1  0.09502178  0.25000000  0.77196145  1.0
  O  O26  1  0.40497822  0.75000000  0.27196145  1.0
  O  O27  1  0.90497822  0.75000000  0.22803855  1.0
