# generated using pymatgen
data_InPO4
_symmetry_space_group_name_H-M   'P 1'
_cell_length_a   9.01885907
_cell_length_b   7.03620857
_cell_length_c   4.91150969
_cell_angle_alpha   90.00000000
_cell_angle_beta   90.00000000
_cell_angle_gamma   90.00000000
_symmetry_Int_Tables_number   1
_chemical_formula_structural   InPO4
_chemical_formula_sum   'In4 P4 O16'
_cell_volume   311.67739857
_cell_formula_units_Z   4
loop_
 _symmetry_equiv_pos_site_id
 _symmetry_equiv_pos_as_xyz
  1  'x, y, z'
loop_
 _atom_site_type_symbol
 _atom_site_label
 _atom_site_symmetry_multiplicity
 _atom_site_fract_x
 _atom_site_fract_y
 _atom_site_fract_z
 _atom_site_occupancy
  In  In0  1  0.00000000  0.50000000  0.00000000  1.0
  In  In1  1  0.00000000  0.00000000  0.00000000  1.0
  In  In2  1  0.50000000  0.50000000  0.50000000  1.0
  In  In3  1  0.50000000  0.00000000  0.50000000  1.0
  P  P4  1  0.67612764  0.25000000  0.02051583  1.0
  P  P5  1  0.17612764  0.25000000  0.47948417  1.0
  P  P6  1  0.32387236  0.75000000  0.97948417  1.0
  P  P7  1  0.82387236  0.75000000  0.52051583  1.0
  O  O8  1  0.62520780  0.43564036  0.15637645  1.0
  O  O9  1  0.62520780  0.06435964  0.15637645  1.0
  O  O10  1  0.12520780  0.43564036  0.34362355  1.0
  O  O11  1  0.12520780  0.06435964  0.34362355  1.0
  O  O12  1  0.37479220  0.93564036  0.84362355  1.0
  O  O13  1  0.37479220  0.56435964  0.84362355  1.0
  O  O14  1  0.87479220  0.93564036  0.65637645  1.0
  O  O15  1  0.87479220  0.56435964  0.65637645  1.0
  O  O16  1  0.85203210  0.25000000  0.03934715  1.0
  O  O17  1  0.35203210  0.25000000  0.46065285  1.0
  O  O18  1  0.14796790  0.75000000  0.96065285  1.0
  O  O19  1  0.64796790  0.75000000  0.53934715  1.0
  O  O20  1  0.62033328  0.25000000  0.71663520  1.0
  O  O21  1  0.12033328  0.25000000  0.78336480  1.0
  O  O22  1  0.37966672  0.75000000  0.28336480  1.0
  O  O23  1  0.87966672  0.75000000  0.21663520  1.0
