# generated using pymatgen
data_Si
_symmetry_space_group_name_H-M   'P 1'
_cell_length_a   10.59160403
_cell_length_b   10.59160403
_cell_length_c   10.02255467
_cell_angle_alpha   90.00000000
_cell_angle_beta   90.00000000
_cell_angle_gamma   74.73752924
_symmetry_Int_Tables_number   1
_chemical_formula_structural   Si
_chemical_formula_sum   Si46
_cell_volume   1084.69518794
_cell_formula_units_Z   46
loop_
 _symmetry_equiv_pos_site_id
 _symmetry_equiv_pos_as_xyz
  1  'x, y, z'
loop_
 _atom_site_type_symbol
 _atom_site_label
 _atom_site_symmetry_multiplicity
 _atom_site_fract_x
 _atom_site_fract_y
 _atom_site_fract_z
 _atom_site_occupancy
  Si  Si0  1  -0.09366905  1.33164532  0.55938771  1.0
  Si  Si1  1  0.33164532  0.90633095  0.44061229  1.0
  Si  Si2  1  -0.09366905  1.33164532  0.94061229  1.0
  Si  Si3  1  0.33164532  0.90633095  0.05938771  1.0
  Si  Si4  1  0.09366905  0.66835468  0.44061229  1.0
  Si  Si5  1  -0.33164532  1.09366905  0.55938771  1.0
  Si  Si6  1  0.09366905  0.66835468  0.05938771  1.0
  Si  Si7  1  -0.33164532  1.09366905  0.94061229  1.0
  Si  Si8  1  -0.19925186  1.55175645  0.62672381  1.0
  Si  Si9  1  0.55175645  0.80074814  0.37327619  1.0
  Si  Si10  1  -0.19925186  1.55175645  0.87327619  1.0
  Si  Si11  1  0.55175645  0.80074814  0.12672381  1.0
  Si  Si12  1  0.19925186  0.44824355  0.37327619  1.0
  Si  Si13  1  -0.55175645  1.19925186  0.62672381  1.0
  Si  Si14  1  0.19925186  0.44824355  0.12672381  1.0
  Si  Si15  1  -0.55175645  1.19925186  0.87327619  1.0
  Si  Si16  1  -0.11048634  1.72590118  0.55893754  1.0
  Si  Si17  1  0.72590118  0.88951366  0.44106246  1.0
  Si  Si18  1  -0.11048634  1.72590118  0.94106246  1.0
  Si  Si19  1  0.72590118  0.88951366  0.05893754  1.0
  Si  Si20  1  0.11048634  0.27409882  0.44106246  1.0
  Si  Si21  1  -0.72590118  1.11048634  0.55893754  1.0
  Si  Si22  1  0.11048634  0.27409882  0.05893754  1.0
  Si  Si23  1  -0.72590118  1.11048634  0.94106246  1.0
  Si  Si24  1  0.60115662  0.60115662  0.50000000  1.0
  Si  Si25  1  0.60115662  0.60115662  0.00000000  1.0
  Si  Si26  1  0.39884338  0.39884338  0.50000000  1.0
  Si  Si27  1  0.39884338  0.39884338  0.00000000  1.0
  Si  Si28  1  -0.24853973  1.24853973  0.44005034  1.0
  Si  Si29  1  0.24853973  0.75146027  0.55994966  1.0
  Si  Si30  1  -0.24853973  1.24853973  0.05994966  1.0
  Si  Si31  1  0.24853973  0.75146027  0.94005034  1.0
  Si  Si32  1  -0.42165194  1.42165194  0.36910422  1.0
  Si  Si33  1  0.42165194  0.57834806  0.63089578  1.0
  Si  Si34  1  -0.42165194  1.42165194  0.13089578  1.0
  Si  Si35  1  0.42165194  0.57834806  0.86910422  1.0
  Si  Si36  1  0.83896386  0.92932141  0.25000000  1.0
  Si  Si37  1  -0.07067859  1.83896386  0.75000000  1.0
  Si  Si38  1  -0.83896386  1.07067859  0.75000000  1.0
  Si  Si39  1  0.07067859  0.16103614  0.25000000  1.0
  Si  Si40  1  0.19839276  0.94299098  0.25000000  1.0
  Si  Si41  1  -0.05700902  1.19839276  0.75000000  1.0
  Si  Si42  1  -0.19839276  1.05700902  0.75000000  1.0
  Si  Si43  1  0.05700902  0.80160724  0.25000000  1.0
  Si  Si44  1  -0.14460493  1.14460493  0.25000000  1.0
  Si  Si45  1  0.14460493  0.85539507  0.75000000  1.0
