# generated using pymatgen
data_Ba4As3
_symmetry_space_group_name_H-M   'P 1'
_cell_length_a   8.68561223
_cell_length_b   8.68561223
_cell_length_c   8.68561223
_cell_angle_alpha   109.47122063
_cell_angle_beta   109.47122063
_cell_angle_gamma   109.47122063
_symmetry_Int_Tables_number   1
_chemical_formula_structural   Ba4As3
_chemical_formula_sum   'Ba8 As6'
_cell_volume   504.40504119
_cell_formula_units_Z   2
loop_
 _symmetry_equiv_pos_site_id
 _symmetry_equiv_pos_as_xyz
  1  'x, y, z'
loop_
 _atom_site_type_symbol
 _atom_site_label
 _atom_site_symmetry_multiplicity
 _atom_site_fract_x
 _atom_site_fract_y
 _atom_site_fract_z
 _atom_site_occupancy
  Ba  Ba0  1  1.36251408  1.36251408  1.36251408  1.0
  Ba  Ba1  1  1.50000000  1.00000000  1.13748592  1.0
  Ba  Ba2  1  0.86251408  0.86251408  0.86251408  1.0
  Ba  Ba3  1  0.50000000  1.00000000  0.63748592  1.0
  Ba  Ba4  1  1.00000000  1.13748592  1.50000000  1.0
  Ba  Ba5  1  1.13748592  0.50000000  1.00000000  1.0
  Ba  Ba6  1  1.00000000  0.63748592  1.50000000  1.0
  Ba  Ba7  1  0.63748592  1.50000000  1.00000000  1.0
  As  As8  1  1.12500000  0.87500000  1.25000000  1.0
  As  As9  1  0.37500000  0.62500000  0.75000000  1.0
  As  As10  1  0.25000000  1.12500000  0.87500000  1.0
  As  As11  1  0.75000000  1.37500000  0.62500000  1.0
  As  As12  1  0.62500000  0.75000000  0.37500000  1.0
  As  As13  1  0.87500000  0.25000000  1.12500000  1.0
