# generated using pymatgen
data_Br
_symmetry_space_group_name_H-M   'P 1'
_cell_length_a   4.64825051
_cell_length_b   4.64825051
_cell_length_c   8.72600565
_cell_angle_alpha   90.00000000
_cell_angle_beta   90.00000000
_cell_angle_gamma   54.25194993
_symmetry_Int_Tables_number   1
_chemical_formula_structural   Br
_chemical_formula_sum   Br4
_cell_volume   153.01474983
_cell_formula_units_Z   4
loop_
 _symmetry_equiv_pos_site_id
 _symmetry_equiv_pos_as_xyz
  1  'x, y, z'
loop_
 _atom_site_type_symbol
 _atom_site_label
 _atom_site_symmetry_multiplicity
 _atom_site_fract_x
 _atom_site_fract_y
 _atom_site_fract_z
 _atom_site_occupancy
  Br  Br0  1  -0.35744758  1.35744758  0.38120960  1.0
  Br  Br1  1  0.14255242  0.85744758  0.11879040  1.0
  Br  Br2  1  0.35744758  0.64255242  0.61879040  1.0
  Br  Br3  1  -0.14255242  1.14255242  0.88120960  1.0
