# generated using pymatgen
data_Al2S3
_symmetry_space_group_name_H-M   'P 1'
_cell_length_a   6.51229034
_cell_length_b   6.51229034
_cell_length_c   6.51229034
_cell_angle_alpha   55.59671100
_cell_angle_beta   55.59671100
_cell_angle_gamma   55.59671100
_symmetry_Int_Tables_number   1
_chemical_formula_structural   Al2S3
_chemical_formula_sum   'Al4 S6'
_cell_volume   175.33511738
_cell_formula_units_Z   2
loop_
 _symmetry_equiv_pos_site_id
 _symmetry_equiv_pos_as_xyz
  1  'x, y, z'
loop_
 _atom_site_type_symbol
 _atom_site_label
 _atom_site_symmetry_multiplicity
 _atom_site_fract_x
 _atom_site_fract_y
 _atom_site_fract_z
 _atom_site_occupancy
  Al  Al0  1  0.84864969  -0.15135031  -0.15135031  1.0
  Al  Al1  1  0.34864969  0.34864969  0.34864969  1.0
  Al  Al2  1  0.65135031  0.65135031  -0.34864969  1.0
  Al  Al3  1  1.15135031  0.15135031  0.15135031  1.0
  S  S4  1  0.44426899  0.75000000  0.05573101  1.0
  S  S5  1  0.94426899  -0.44426899  0.25000000  1.0
  S  S6  1  0.25000000  0.94426899  -0.44426899  1.0
  S  S7  1  0.75000000  1.05573101  -0.55573101  1.0
  S  S8  1  0.55573101  0.25000000  -0.05573101  1.0
  S  S9  1  1.05573101  0.44426899  -0.25000000  1.0
