# generated using pymatgen
data_Sr2YSbO6
_symmetry_space_group_name_H-M   'P 1'
_cell_length_a   5.85683155
_cell_length_b   5.92599861
_cell_length_c   10.15401974
_cell_angle_alpha   90.00000000
_cell_angle_beta   124.98288189
_cell_angle_gamma   90.00000000
_symmetry_Int_Tables_number   1
_chemical_formula_structural   Sr2YSbO6
_chemical_formula_sum   'Sr4 Y2 Sb2 O12'
_cell_volume   288.74709711
_cell_formula_units_Z   2
loop_
 _symmetry_equiv_pos_site_id
 _symmetry_equiv_pos_as_xyz
  1  'x, y, z'
loop_
 _atom_site_type_symbol
 _atom_site_label
 _atom_site_symmetry_multiplicity
 _atom_site_fract_x
 _atom_site_fract_y
 _atom_site_fract_z
 _atom_site_occupancy
  Sr  Sr0  1  0.24100730  0.46494131  0.24966267  1.0
  Sr  Sr1  1  0.24100730  1.03505869  0.74966267  1.0
  Sr  Sr2  1  0.75899270  -0.03505869  0.25033733  1.0
  Sr  Sr3  1  0.75899270  0.53505869  0.75033733  1.0
  Y  Y4  1  0.50000000  0.00000000  0.50000000  1.0
  Y  Y5  1  0.50000000  0.50000000  -0.00000000  1.0
  Sb  Sb6  1  0.00000000  0.00000000  0.00000000  1.0
  Sb  Sb7  1  0.00000000  0.50000000  0.50000000  1.0
  O  O8  1  0.31540852  0.02315226  0.23613070  1.0
  O  O9  1  0.31540852  0.47684774  0.73613070  1.0
  O  O10  1  0.68459148  0.52315226  0.26386930  1.0
  O  O11  1  0.68459148  0.97684774  0.76386930  1.0
  O  O12  1  0.84615453  0.72558355  0.04368326  1.0
  O  O13  1  0.84615453  0.77441645  0.54368326  1.0
  O  O14  1  0.15384547  0.22558355  0.45631674  1.0
  O  O15  1  0.15384547  0.27441645  0.95631674  1.0
  O  O16  1  0.76717117  0.20069439  1.04075878  1.0
  O  O17  1  0.76717117  0.29930561  0.54075878  1.0
  O  O18  1  0.23282883  0.70069439  0.45924122  1.0
  O  O19  1  0.23282883  0.79930561  -0.04075878  1.0
