# generated using pymatgen
data_Ag5PSeO4
_symmetry_space_group_name_H-M   'P 1'
_cell_length_a   6.97237043
_cell_length_b   6.97237043
_cell_length_c   7.35270451
_cell_angle_alpha   90.00000000
_cell_angle_beta   90.00000000
_cell_angle_gamma   90.00000000
_symmetry_Int_Tables_number   1
_chemical_formula_structural   Ag5PSeO4
_chemical_formula_sum   'Ag10 P2 Se2 O8'
_cell_volume   357.44400509
_cell_formula_units_Z   2
loop_
 _symmetry_equiv_pos_site_id
 _symmetry_equiv_pos_as_xyz
  1  'x, y, z'
loop_
 _atom_site_type_symbol
 _atom_site_label
 _atom_site_symmetry_multiplicity
 _atom_site_fract_x
 _atom_site_fract_y
 _atom_site_fract_z
 _atom_site_occupancy
  Ag  Ag0  1  0.78270555  0.71729445  0.19494360  1.0
  Ag  Ag1  1  0.21729445  0.71729445  0.19494360  1.0
  Ag  Ag2  1  0.78270555  0.28270555  0.19494360  1.0
  Ag  Ag3  1  0.21729445  0.28270555  0.19494360  1.0
  Ag  Ag4  1  0.71729445  0.78270555  0.80505640  1.0
  Ag  Ag5  1  0.28270555  0.78270555  0.80505640  1.0
  Ag  Ag6  1  0.71729445  0.21729445  0.80505640  1.0
  Ag  Ag7  1  0.28270555  0.21729445  0.80505640  1.0
  Ag  Ag8  1  0.00000000  0.50000000  0.46939894  1.0
  Ag  Ag9  1  0.50000000  0.00000000  0.53060106  1.0
  P  P10  1  0.50000000  0.50000000  0.50000000  1.0
  P  P11  1  0.00000000  0.00000000  0.50000000  1.0
  Se  Se12  1  0.00000000  0.50000000  -0.00465108  1.0
  Se  Se13  1  0.50000000  0.00000000  1.00465108  1.0
  O  O14  1  0.50000000  0.31588256  0.37682874  1.0
  O  O15  1  0.50000000  0.68411744  0.37682874  1.0
  O  O16  1  0.81588256  -0.00000000  0.37682874  1.0
  O  O17  1  0.18411744  -0.00000000  0.37682874  1.0
  O  O18  1  0.00000000  0.18411744  0.62317126  1.0
  O  O19  1  0.00000000  0.81588256  0.62317126  1.0
  O  O20  1  0.68411744  0.50000000  0.62317126  1.0
  O  O21  1  0.31588256  0.50000000  0.62317126  1.0
