# generated using pymatgen
data_RbC4N5
_symmetry_space_group_name_H-M   'P 1'
_cell_length_a   9.73900982
_cell_length_b   10.61895912
_cell_length_c   7.77032301
_cell_angle_alpha   90.00000000
_cell_angle_beta   107.72247222
_cell_angle_gamma   90.00000000
_symmetry_Int_Tables_number   1
_chemical_formula_structural   RbC4N5
_chemical_formula_sum   'Rb4 C16 N20'
_cell_volume   765.45565015
_cell_formula_units_Z   4
loop_
 _symmetry_equiv_pos_site_id
 _symmetry_equiv_pos_as_xyz
  1  'x, y, z'
loop_
 _atom_site_type_symbol
 _atom_site_label
 _atom_site_symmetry_multiplicity
 _atom_site_fract_x
 _atom_site_fract_y
 _atom_site_fract_z
 _atom_site_occupancy
  Rb  Rb0  1  0.82266703  0.33960220  0.57745302  1.0
  Rb  Rb1  1  0.17733297  0.66039780  0.42254698  1.0
  Rb  Rb2  1  0.17733297  0.83960220  0.92254698  1.0
  Rb  Rb3  1  0.82266703  0.16039780  0.07745302  1.0
  C  C4  1  0.80295393  0.81558204  0.50946329  1.0
  C  C5  1  0.19704607  0.18441796  0.49053671  1.0
  C  C6  1  0.19704607  0.31558204  0.99053671  1.0
  C  C7  1  0.80295393  0.68441796  0.00946329  1.0
  C  C8  1  0.68673356  0.73127937  0.44689436  1.0
  C  C9  1  0.31326644  0.26872063  0.55310564  1.0
  C  C10  1  0.31326644  0.23127937  0.05310564  1.0
  C  C11  1  0.68673356  0.76872063  0.94689436  1.0
  C  C12  1  0.54062270  0.75651278  0.35509813  1.0
  C  C13  1  0.45937730  0.24348722  0.64490187  1.0
  C  C14  1  0.45937730  0.25651278  0.14490187  1.0
  C  C15  1  0.54062270  0.74348722  0.85509813  1.0
  C  C16  1  0.80485594  0.94783862  0.49408807  1.0
  C  C17  1  0.19514406  0.05216138  0.50591193  1.0
  C  C18  1  0.19514406  0.44783862  1.00591193  1.0
  C  C19  1  0.80485594  0.55216138  -0.00591193  1.0
  N  N20  1  0.73968934  0.61326144  0.49124420  1.0
  N  N21  1  0.26031066  0.38673856  0.50875580  1.0
  N  N22  1  0.26031066  0.11326144  0.00875580  1.0
  N  N23  1  0.73968934  0.88673856  0.99124420  1.0
  N  N24  1  0.87999490  0.62543637  0.57643134  1.0
  N  N25  1  0.12000510  0.37456363  0.42356866  1.0
  N  N26  1  0.12000510  0.12543637  0.92356866  1.0
  N  N27  1  0.87999490  0.87456363  0.07643134  1.0
  N  N28  1  0.92214170  0.74562927  0.59017947  1.0
  N  N29  1  0.07785830  0.25437073  0.40982053  1.0
  N  N30  1  0.07785830  0.24562927  0.90982053  1.0
  N  N31  1  0.92214170  0.75437073  0.09017947  1.0
  N  N32  1  0.41985342  0.77819547  0.27943098  1.0
  N  N33  1  0.58014658  0.22180453  0.72056902  1.0
  N  N34  1  0.58014658  0.27819547  0.22056902  1.0
  N  N35  1  0.41985342  0.72180453  0.77943098  1.0
  N  N36  1  0.80538853  0.05712105  0.47947143  1.0
  N  N37  1  0.19461147  0.94287895  0.52052857  1.0
  N  N38  1  0.19461147  0.55712105  1.02052857  1.0
  N  N39  1  0.80538853  0.44287895  -0.02052857  1.0
