# generated using pymatgen
data_In6TeO12
_symmetry_space_group_name_H-M   'P 1'
_cell_length_a   6.34945617
_cell_length_b   6.34945617
_cell_length_c   6.34945617
_cell_angle_alpha   98.70133997
_cell_angle_beta   98.70133997
_cell_angle_gamma   98.70133997
_symmetry_Int_Tables_number   1
_chemical_formula_structural   In6TeO12
_chemical_formula_sum   'In6 Te1 O12'
_cell_volume   246.11779114
_cell_formula_units_Z   1
loop_
 _symmetry_equiv_pos_site_id
 _symmetry_equiv_pos_as_xyz
  1  'x, y, z'
loop_
 _atom_site_type_symbol
 _atom_site_label
 _atom_site_symmetry_multiplicity
 _atom_site_fract_x
 _atom_site_fract_y
 _atom_site_fract_z
 _atom_site_occupancy
  In  In0  1  0.85879461  0.68005332  0.39374035  1.0
  In  In1  1  1.31994668  -0.39374035  0.14120539  1.0
  In  In2  1  0.60625965  0.14120539  0.31994668  1.0
  In  In3  1  1.14120539  0.31994668  -0.39374035  1.0
  In  In4  1  0.68005332  1.39374035  -0.14120539  1.0
  In  In5  1  1.39374035  0.85879461  -0.31994668  1.0
  Te  Te6  1  0.00000000  0.00000000  0.00000000  1.0
  O  O7  1  0.69447394  1.04394145  -0.08774048  1.0
  O  O8  1  0.95605855  0.08774048  0.30552606  1.0
  O  O9  1  1.08774048  0.30552606  -0.04394145  1.0
  O  O10  1  1.30552606  -0.04394145  0.08774048  1.0
  O  O11  1  1.04394145  0.91225952  -0.30552606  1.0
  O  O12  1  0.91225952  0.69447394  0.04394145  1.0
  O  O13  1  1.40541434  0.58091471  -0.17598105  1.0
  O  O14  1  0.41908529  1.17598105  -0.40541434  1.0
  O  O15  1  1.17598105  0.59458566  -0.58091471  1.0
  O  O16  1  0.59458566  0.41908529  0.17598105  1.0
  O  O17  1  1.58091471  -0.17598105  0.40541434  1.0
  O  O18  1  0.82401895  0.40541434  0.58091471  1.0
