# generated using pymatgen
data_Na6Ge2Se7
_symmetry_space_group_name_H-M   'P 1'
_cell_length_a   7.31697274
_cell_length_b   7.31697274
_cell_length_c   16.04952753
_cell_angle_alpha   80.84696422
_cell_angle_beta   99.15303578
_cell_angle_gamma   81.52393213
_symmetry_Int_Tables_number   1
_chemical_formula_structural   Na6Ge2Se7
_chemical_formula_sum   'Na12 Ge4 Se14'
_cell_volume   824.26701941
_cell_formula_units_Z   2
loop_
 _symmetry_equiv_pos_site_id
 _symmetry_equiv_pos_as_xyz
  1  'x, y, z'
loop_
 _atom_site_type_symbol
 _atom_site_label
 _atom_site_symmetry_multiplicity
 _atom_site_fract_x
 _atom_site_fract_y
 _atom_site_fract_z
 _atom_site_occupancy
  Na  Na0  1  0.45552478  -0.00982271  0.35882596  1.0
  Na  Na1  1  1.00982271  0.54447522  0.85882596  1.0
  Na  Na2  1  0.99017729  -0.54447522  0.14117404  1.0
  Na  Na3  1  1.54447522  0.00982271  0.64117404  1.0
  Na  Na4  1  1.46958044  0.23693780  0.07168253  1.0
  Na  Na5  1  0.76306220  -0.46958044  0.57168253  1.0
  Na  Na6  1  1.23693780  0.46958044  0.42831747  1.0
  Na  Na7  1  0.53041956  -0.23693780  0.92831747  1.0
  Na  Na8  1  0.91955671  -0.08044329  0.25000000  1.0
  Na  Na9  1  1.08044329  0.08044329  0.75000000  1.0
  Na  Na10  1  -0.00000000  0.00000000  0.50000000  1.0
  Na  Na11  1  0.00000000  0.00000000  0.00000000  1.0
  Ge  Ge12  1  0.42382931  -0.25923696  0.13998529  1.0
  Ge  Ge13  1  1.25923696  0.57617069  0.63998529  1.0
  Ge  Ge14  1  0.74076304  -0.57617069  0.36001471  1.0
  Ge  Ge15  1  1.57617069  0.25923696  0.86001471  1.0
  Se  Se16  1  0.70926740  -0.18691850  0.10388948  1.0
  Se  Se17  1  1.18691850  0.29073260  0.60388948  1.0
  Se  Se18  1  0.81308150  -0.29073260  0.39611052  1.0
  Se  Se19  1  1.29073260  0.18691850  0.89611052  1.0
  Se  Se20  1  1.63011790  0.23619798  0.47091726  1.0
  Se  Se21  1  0.76380202  -0.63011790  0.97091726  1.0
  Se  Se22  1  1.23619798  0.63011790  0.02908274  1.0
  Se  Se23  1  0.36988210  -0.23619798  0.52908274  1.0
  Se  Se24  1  0.25273219  0.00410447  0.18023607  1.0
  Se  Se25  1  0.99589553  0.74726781  0.68023607  1.0
  Se  Se26  1  1.00410447  -0.74726781  0.31976393  1.0
  Se  Se27  1  1.74726781  -0.00410447  0.81976393  1.0
  Se  Se28  1  1.46080778  0.46080778  0.25000000  1.0
  Se  Se29  1  0.53919222  -0.46080778  0.75000000  1.0
