# generated using pymatgen
data_Gd2C
_symmetry_space_group_name_H-M   'P 1'
_cell_length_a   6.54865095
_cell_length_b   6.54865095
_cell_length_c   6.54865095
_cell_angle_alpha   32.32481193
_cell_angle_beta   32.32481193
_cell_angle_gamma   32.32481193
_symmetry_Int_Tables_number   1
_chemical_formula_structural   Gd2C
_chemical_formula_sum   'Gd2 C1'
_cell_volume   71.38109612
_cell_formula_units_Z   1
loop_
 _symmetry_equiv_pos_site_id
 _symmetry_equiv_pos_as_xyz
  1  'x, y, z'
loop_
 _atom_site_type_symbol
 _atom_site_label
 _atom_site_symmetry_multiplicity
 _atom_site_fract_x
 _atom_site_fract_y
 _atom_site_fract_z
 _atom_site_occupancy
  Gd  Gd0  1  0.73934861  0.73934861  0.73934861  1.0
  Gd  Gd1  1  1.26065139  1.26065139  0.26065139  1.0
  C  C2  1  -0.00000000  0.00000000  0.00000000  1.0
