# generated using pymatgen
data_Sr5V3O12F
_symmetry_space_group_name_H-M   'P 1'
_cell_length_a   10.12960796
_cell_length_b   10.12960796
_cell_length_c   7.46628781
_cell_angle_alpha   90.00000000
_cell_angle_beta   90.00000000
_cell_angle_gamma   120.00000000
_symmetry_Int_Tables_number   1
_chemical_formula_structural   Sr5V3O12F
_chemical_formula_sum   'Sr10 V6 O24 F2'
_cell_volume   663.46899694
_cell_formula_units_Z   2
loop_
 _symmetry_equiv_pos_site_id
 _symmetry_equiv_pos_as_xyz
  1  'x, y, z'
loop_
 _atom_site_type_symbol
 _atom_site_label
 _atom_site_symmetry_multiplicity
 _atom_site_fract_x
 _atom_site_fract_y
 _atom_site_fract_z
 _atom_site_occupancy
  Sr  Sr0  1  0.00569978  0.75822911  0.25000000  1.0
  Sr  Sr1  1  0.75822911  0.75252933  0.75000000  1.0
  Sr  Sr2  1  0.75252933  0.99430022  0.25000000  1.0
  Sr  Sr3  1  0.24177089  0.24747067  0.25000000  1.0
  Sr  Sr4  1  0.99430022  0.24177089  0.75000000  1.0
  Sr  Sr5  1  0.24747067  0.00569978  0.75000000  1.0
  Sr  Sr6  1  0.33333333  0.66666667  0.49895539  1.0
  Sr  Sr7  1  0.33333333  0.66666667  0.00104461  1.0
  Sr  Sr8  1  0.66666667  0.33333333  0.99895539  1.0
  Sr  Sr9  1  0.66666667  0.33333333  0.50104461  1.0
  V  V10  1  0.63177012  0.60145338  0.25000000  1.0
  V  V11  1  0.60145338  0.96968326  0.75000000  1.0
  V  V12  1  0.96968326  0.36822988  0.25000000  1.0
  V  V13  1  0.39854662  0.03031674  0.25000000  1.0
  V  V14  1  0.36822988  0.39854662  0.75000000  1.0
  V  V15  1  0.03031674  0.63177012  0.75000000  1.0
  O  O16  1  0.74977722  0.65978486  0.43277923  1.0
  O  O17  1  0.74977722  0.65978486  0.06722077  1.0
  O  O18  1  0.65978486  0.91000764  0.93277923  1.0
  O  O19  1  0.65978486  0.91000764  0.56722077  1.0
  O  O20  1  0.91000764  0.25022278  0.43277923  1.0
  O  O21  1  0.91000764  0.25022278  0.06722077  1.0
  O  O22  1  0.34021514  0.08999236  0.43277923  1.0
  O  O23  1  0.34021514  0.08999236  0.06722077  1.0
  O  O24  1  0.25022278  0.34021514  0.93277923  1.0
  O  O25  1  0.25022278  0.34021514  0.56722077  1.0
  O  O26  1  0.08999236  0.74977722  0.93277923  1.0
  O  O27  1  0.08999236  0.74977722  0.56722077  1.0
  O  O28  1  0.31864253  0.83474784  0.25000000  1.0
  O  O29  1  0.83474784  0.51610531  0.75000000  1.0
  O  O30  1  0.51610531  0.68135747  0.25000000  1.0
  O  O31  1  0.16525216  0.48389469  0.25000000  1.0
  O  O32  1  0.68135747  0.16525216  0.75000000  1.0
  O  O33  1  0.48389469  0.31864253  0.75000000  1.0
  O  O34  1  0.53060975  0.40390079  0.25000000  1.0
  O  O35  1  0.40390079  0.87329104  0.75000000  1.0
  O  O36  1  0.87329104  0.46939025  0.25000000  1.0
  O  O37  1  0.59609921  0.12670896  0.25000000  1.0
  O  O38  1  0.46939025  0.59609921  0.75000000  1.0
  O  O39  1  0.12670896  0.53060975  0.75000000  1.0
  F  F40  1  0.00000000  0.00000000  0.25000000  1.0
  F  F41  1  0.00000000  0.00000000  0.75000000  1.0
