# generated using pymatgen
data_Rb3CO3F
_symmetry_space_group_name_H-M   'P 1'
_cell_length_a   7.39064247
_cell_length_b   7.39064247
_cell_length_c   7.39064247
_cell_angle_alpha   65.50271335
_cell_angle_beta   65.50271335
_cell_angle_gamma   65.50271335
_symmetry_Int_Tables_number   1
_chemical_formula_structural   Rb3CO3F
_chemical_formula_sum   'Rb6 C2 O6 F2'
_cell_volume   319.59839928
_cell_formula_units_Z   2
loop_
 _symmetry_equiv_pos_site_id
 _symmetry_equiv_pos_as_xyz
  1  'x, y, z'
loop_
 _atom_site_type_symbol
 _atom_site_label
 _atom_site_symmetry_multiplicity
 _atom_site_fract_x
 _atom_site_fract_y
 _atom_site_fract_z
 _atom_site_occupancy
  Rb  Rb0  1  0.66943572  0.25000000  -0.16943572  1.0
  Rb  Rb1  1  0.16943572  0.33056428  -0.25000000  1.0
  Rb  Rb2  1  0.75000000  0.16943572  -0.66943572  1.0
  Rb  Rb3  1  0.25000000  0.83056428  -0.33056428  1.0
  Rb  Rb4  1  0.33056428  0.75000000  -0.83056428  1.0
  Rb  Rb5  1  0.83056428  -0.33056428  0.25000000  1.0
  C  C6  1  1.25000000  1.25000000  0.25000000  1.0
  C  C7  1  0.75000000  0.75000000  -0.25000000  1.0
  O  O8  1  1.08644725  1.25000000  0.41355275  1.0
  O  O9  1  0.58644725  0.91355275  -0.25000000  1.0
  O  O10  1  0.75000000  0.58644725  -0.08644725  1.0
  O  O11  1  1.25000000  1.41355275  0.08644725  1.0
  O  O12  1  0.91355275  0.75000000  -0.41355275  1.0
  O  O13  1  1.41355275  1.08644725  0.25000000  1.0
  F  F14  1  0.50000000  0.50000000  -0.50000000  1.0
  F  F15  1  0.00000000  0.00000000  0.00000000  1.0
