# generated using pymatgen
data_GdMgPb
_symmetry_space_group_name_H-M   'P 1'
_cell_length_a   8.56515241
_cell_length_b   8.56515241
_cell_length_c   8.56515241
_cell_angle_alpha   148.27515895
_cell_angle_beta   148.27515895
_cell_angle_gamma   45.47933937
_symmetry_Int_Tables_number   1
_chemical_formula_structural   GdMgPb
_chemical_formula_sum   'Gd2 Mg2 Pb2'
_cell_volume   173.17814967
_cell_formula_units_Z   2
loop_
 _symmetry_equiv_pos_site_id
 _symmetry_equiv_pos_as_xyz
  1  'x, y, z'
loop_
 _atom_site_type_symbol
 _atom_site_label
 _atom_site_symmetry_multiplicity
 _atom_site_fract_x
 _atom_site_fract_y
 _atom_site_fract_z
 _atom_site_occupancy
  Gd  Gd0  1  0.50000000  0.00000000  0.50000000  1.0
  Gd  Gd1  1  0.00000000  0.50000000  0.50000000  1.0
  Mg  Mg2  1  0.66768016  0.66768016  1.00000000  1.0
  Mg  Mg3  1  0.33231984  0.33231984  -0.00000000  1.0
  Pb  Pb4  1  0.85306541  0.85306541  1.00000000  1.0
  Pb  Pb5  1  0.14693459  0.14693459  -0.00000000  1.0
