# generated using pymatgen
data_NaLiMgPO4F
_symmetry_space_group_name_H-M   'P 1'
_cell_length_a   8.55984302
_cell_length_b   11.34230563
_cell_length_c   5.07124353
_cell_angle_alpha   90.00000000
_cell_angle_beta   125.99394307
_cell_angle_gamma   90.00000000
_symmetry_Int_Tables_number   1
_chemical_formula_structural   NaLiMgPO4F
_chemical_formula_sum   'Na4 Li4 Mg4 P4 O16 F4'
_cell_volume   398.35714316
_cell_formula_units_Z   4
loop_
 _symmetry_equiv_pos_site_id
 _symmetry_equiv_pos_as_xyz
  1  'x, y, z'
loop_
 _atom_site_type_symbol
 _atom_site_label
 _atom_site_symmetry_multiplicity
 _atom_site_fract_x
 _atom_site_fract_y
 _atom_site_fract_z
 _atom_site_occupancy
  Na  Na0  1  0.48808256  0.33414158  0.23211551  1.0
  Na  Na1  1  0.48808256  0.16585842  0.73211551  1.0
  Na  Na2  1  0.51191744  0.83414158  0.26788449  1.0
  Na  Na3  1  0.51191744  0.66585842  0.76788449  1.0
  Li  Li4  1  0.26625527  0.07686996  1.00453544  1.0
  Li  Li5  1  0.26625527  0.42313004  0.50453544  1.0
  Li  Li6  1  0.73374473  0.57686996  0.49546456  1.0
  Li  Li7  1  0.73374473  0.92313004  -0.00453544  1.0
  Mg  Mg8  1  0.01795949  0.32894242  0.77888802  1.0
  Mg  Mg9  1  0.01795949  0.17105758  0.27888802  1.0
  Mg  Mg10  1  0.98204051  0.82894242  0.72111198  1.0
  Mg  Mg11  1  0.98204051  0.67105758  0.22111198  1.0
  P  P12  1  0.24627595  0.58175367  0.97677816  1.0
  P  P13  1  0.24627595  0.91824633  0.47677816  1.0
  P  P14  1  0.75372405  0.08175367  0.52322184  1.0
  P  P15  1  0.75372405  0.41824633  0.02322184  1.0
  O  O16  1  0.11090321  0.67199486  0.98344826  1.0
  O  O17  1  0.11090321  0.82800514  0.48344826  1.0
  O  O18  1  0.88909679  0.17199486  0.51655174  1.0
  O  O19  1  0.88909679  0.32800514  0.01655174  1.0
  O  O20  1  0.19669350  0.57419038  0.62580949  1.0
  O  O21  1  0.19669350  0.92580962  0.12580949  1.0
  O  O22  1  0.80330650  0.07419038  0.87419051  1.0
  O  O23  1  0.80330650  0.42580962  0.37419051  1.0
  O  O24  1  0.21742816  0.45790210  0.07685492  1.0
  O  O25  1  0.21742816  0.04209790  0.57685492  1.0
  O  O26  1  0.78257184  0.95790210  0.42314508  1.0
  O  O27  1  0.78257184  0.54209790  0.92314508  1.0
  O  O28  1  0.54132039  0.12315298  0.27994851  1.0
  O  O29  1  0.54132039  0.37684702  0.77994851  1.0
  O  O30  1  0.45867961  0.62315298  0.22005149  1.0
  O  O31  1  0.45867961  0.87684702  0.72005149  1.0
  F  F32  1  0.19599776  0.20929536  0.15183758  1.0
  F  F33  1  0.19599776  0.29070464  0.65183758  1.0
  F  F34  1  0.80400224  0.70929536  0.34816242  1.0
  F  F35  1  0.80400224  0.79070464  0.84816242  1.0
