# generated using pymatgen
data_V2BiO2
_symmetry_space_group_name_H-M   'P 1'
_cell_length_a   7.34125042
_cell_length_b   7.34125042
_cell_length_c   7.34125042
_cell_angle_alpha   113.05816512
_cell_angle_beta   113.05816512
_cell_angle_gamma   102.51347421
_symmetry_Int_Tables_number   1
_chemical_formula_structural   V2BiO2
_chemical_formula_sum   'V8 Bi4 O8'
_cell_volume   301.25914091
_cell_formula_units_Z   4
loop_
 _symmetry_equiv_pos_site_id
 _symmetry_equiv_pos_as_xyz
  1  'x, y, z'
loop_
 _atom_site_type_symbol
 _atom_site_label
 _atom_site_symmetry_multiplicity
 _atom_site_fract_x
 _atom_site_fract_y
 _atom_site_fract_z
 _atom_site_occupancy
  V  V0  1  1.21458233  1.54722691  0.66735542  1.0
  V  V1  1  0.87012851  0.70277309  0.16735542  1.0
  V  V2  1  0.87987149  0.54722691  0.33264458  1.0
  V  V3  1  1.53541767  0.70277309  0.83264458  1.0
  V  V4  1  0.45277309  0.12012851  0.66735542  1.0
  V  V5  1  1.29722691  1.46458233  1.16735542  1.0
  V  V6  1  0.45277309  0.78541767  0.33264458  1.0
  V  V7  1  1.29722691  1.12987149  0.83264458  1.0
  Bi  Bi8  1  1.37500000  1.12500000  1.25000000  1.0
  Bi  Bi9  1  0.87500000  1.12500000  0.75000000  1.0
  Bi  Bi10  1  0.87500000  1.12500000  0.25000000  1.0
  Bi  Bi11  1  0.87500000  1.62500000  0.75000000  1.0
  O  O12  1  1.21953487  1.37924265  0.84029223  1.0
  O  O13  1  1.21104958  0.87075735  1.34029223  1.0
  O  O14  1  0.53895042  0.37924265  0.15970777  1.0
  O  O15  1  0.53046513  0.87075735  0.65970777  1.0
  O  O16  1  0.62075735  0.46104958  0.84029223  1.0
  O  O17  1  1.12924265  1.46953487  0.34029223  1.0
  O  O18  1  0.62075735  0.78046513  0.15970777  1.0
  O  O19  1  1.12924265  1.78895042  0.65970777  1.0
