# generated using pymatgen
data_NO
_symmetry_space_group_name_H-M   'P 1'
_cell_length_a   6.26770662
_cell_length_b   3.39784124
_cell_length_c   7.74249993
_cell_angle_alpha   90.00000000
_cell_angle_beta   118.57039509
_cell_angle_gamma   90.00000000
_symmetry_Int_Tables_number   1
_chemical_formula_structural   NO
_chemical_formula_sum   'N4 O4'
_cell_volume   144.81092237
_cell_formula_units_Z   4
loop_
 _symmetry_equiv_pos_site_id
 _symmetry_equiv_pos_as_xyz
  1  'x, y, z'
loop_
 _atom_site_type_symbol
 _atom_site_label
 _atom_site_symmetry_multiplicity
 _atom_site_fract_x
 _atom_site_fract_y
 _atom_site_fract_z
 _atom_site_occupancy
  N  N0  1  0.20461344  0.87010925  0.97785712  1.0
  N  N1  1  0.79538656  0.37010925  0.52214288  1.0
  N  N2  1  0.79538656  0.12989075  0.02214288  1.0
  N  N3  1  0.20461344  0.62989075  0.47785712  1.0
  O  O4  1  0.23978634  0.10832202  0.09519104  1.0
  O  O5  1  0.76021366  0.60832202  0.40480896  1.0
  O  O6  1  0.76021366  0.89167798  0.90480896  1.0
  O  O7  1  0.23978634  0.39167798  0.59519104  1.0
