# generated using pymatgen
data_Ba(InAu)2
_symmetry_space_group_name_H-M   'P 1'
_cell_length_a   8.92174804
_cell_length_b   4.80664636
_cell_length_c   12.62252004
_cell_angle_alpha   90.00000000
_cell_angle_beta   90.00000000
_cell_angle_gamma   90.00000000
_symmetry_Int_Tables_number   1
_chemical_formula_structural   Ba(InAu)2
_chemical_formula_sum   'Ba4 In8 Au8'
_cell_volume   541.30020835
_cell_formula_units_Z   4
loop_
 _symmetry_equiv_pos_site_id
 _symmetry_equiv_pos_as_xyz
  1  'x, y, z'
loop_
 _atom_site_type_symbol
 _atom_site_label
 _atom_site_symmetry_multiplicity
 _atom_site_fract_x
 _atom_site_fract_y
 _atom_site_fract_z
 _atom_site_occupancy
  Ba  Ba0  1  0.71893109  0.75000000  0.33389078  1.0
  Ba  Ba1  1  0.21893109  0.75000000  0.16610922  1.0
  Ba  Ba2  1  0.28106891  0.25000000  0.66610922  1.0
  Ba  Ba3  1  0.78106891  0.25000000  0.83389078  1.0
  In  In4  1  0.64030326  0.75000000  0.64230220  1.0
  In  In5  1  0.14030326  0.75000000  0.85769780  1.0
  In  In6  1  0.35969674  0.25000000  0.35769780  1.0
  In  In7  1  0.85969674  0.25000000  0.14230220  1.0
  In  In8  1  0.60206592  0.75000000  0.04935826  1.0
  In  In9  1  0.10206592  0.75000000  0.45064174  1.0
  In  In10  1  0.39793408  0.25000000  0.95064174  1.0
  In  In11  1  0.89793408  0.25000000  0.54935826  1.0
  Au  Au12  1  0.97369323  0.75000000  0.66356363  1.0
  Au  Au13  1  0.47369323  0.75000000  0.83643637  1.0
  Au  Au14  1  0.02630677  0.25000000  0.33643637  1.0
  Au  Au15  1  0.52630677  0.25000000  0.16356363  1.0
  Au  Au16  1  0.91021158  0.75000000  0.02115199  1.0
  Au  Au17  1  0.41021158  0.75000000  0.47884801  1.0
  Au  Au18  1  0.08978842  0.25000000  0.97884801  1.0
  Au  Au19  1  0.58978842  0.25000000  0.52115199  1.0
