# generated using pymatgen
data_TlCuPO4
_symmetry_space_group_name_H-M   'P 1'
_cell_length_a   4.93291724
_cell_length_b   4.93291724
_cell_length_c   18.52430129
_cell_angle_alpha   87.76105341
_cell_angle_beta   92.23894659
_cell_angle_gamma   88.70365059
_symmetry_Int_Tables_number   1
_chemical_formula_structural   TlCuPO4
_chemical_formula_sum   'Tl4 Cu4 P4 O16'
_cell_volume   449.94464163
_cell_formula_units_Z   4
loop_
 _symmetry_equiv_pos_site_id
 _symmetry_equiv_pos_as_xyz
  1  'x, y, z'
loop_
 _atom_site_type_symbol
 _atom_site_label
 _atom_site_symmetry_multiplicity
 _atom_site_fract_x
 _atom_site_fract_y
 _atom_site_fract_z
 _atom_site_occupancy
  Tl  Tl0  1  0.72634493  -0.28199474  0.06763468  1.0
  Tl  Tl1  1  1.28199474  0.27365507  0.56763468  1.0
  Tl  Tl2  1  0.71800526  -0.27365507  0.43236532  1.0
  Tl  Tl3  1  1.27365507  0.28199474  0.93236532  1.0
  Cu  Cu4  1  1.70417887  0.20620655  0.24965790  1.0
  Cu  Cu5  1  0.79379345  -0.70417887  0.74965790  1.0
  Cu  Cu6  1  1.20620655  0.70417887  0.25034210  1.0
  Cu  Cu7  1  0.29582113  -0.20620655  0.75034210  1.0
  P  P8  1  1.22908737  0.18057995  0.35119061  1.0
  P  P9  1  0.81942005  -0.22908737  0.85119061  1.0
  P  P10  1  1.18057995  0.22908737  0.14880939  1.0
  P  P11  1  0.77091263  -0.18057995  0.64880939  1.0
  O  O12  1  1.92197872  0.11777403  0.33699129  1.0
  O  O13  1  0.88222597  -0.92197872  0.83699129  1.0
  O  O14  1  1.11777403  0.92197872  0.16300871  1.0
  O  O15  1  0.07802128  -0.11777403  0.66300871  1.0
  O  O16  1  0.39684920  0.01381113  0.29321882  1.0
  O  O17  1  0.98618887  0.60315080  0.79321882  1.0
  O  O18  1  1.01381113  -0.60315080  0.20678118  1.0
  O  O19  1  1.60315080  -0.01381113  0.70678118  1.0
  O  O20  1  1.31817465  0.08549990  0.42817962  1.0
  O  O21  1  0.91450010  -0.31817465  0.92817962  1.0
  O  O22  1  1.08549990  0.31817465  0.07182038  1.0
  O  O23  1  0.68182535  -0.08549990  0.57182038  1.0
  O  O24  1  1.48709554  0.29194579  0.16219762  1.0
  O  O25  1  0.70805421  -0.48709554  0.66219762  1.0
  O  O26  1  1.29194579  0.48709554  0.33780238  1.0
  O  O27  1  0.51290446  -0.29194579  0.83780238  1.0
