# generated using pymatgen
data_I
_symmetry_space_group_name_H-M   'P 1'
_cell_length_a   4.55500580
_cell_length_b   4.96740828
_cell_length_c   9.83020688
_cell_angle_alpha   90.00000000
_cell_angle_beta   90.01944945
_cell_angle_gamma   90.00000000
_symmetry_Int_Tables_number   1
_chemical_formula_structural   I
_chemical_formula_sum   I4
_cell_volume   222.42388574
_cell_formula_units_Z   4
loop_
 _symmetry_equiv_pos_site_id
 _symmetry_equiv_pos_as_xyz
  1  'x, y, z'
loop_
 _atom_site_type_symbol
 _atom_site_label
 _atom_site_symmetry_multiplicity
 _atom_site_fract_x
 _atom_site_fract_y
 _atom_site_fract_z
 _atom_site_occupancy
  I  I0  1  0.83778125  0.00000000  0.87739678  1.0
  I  I1  1  0.16221875  0.00000000  0.12260322  1.0
  I  I2  1  0.66229029  0.00000000  0.37748490  1.0
  I  I3  1  0.33770971  0.00000000  0.62251510  1.0
