# generated using pymatgen
data_NaSbO12
_symmetry_space_group_name_H-M   'P 1'
_cell_length_a   6.60878677
_cell_length_b   6.60878677
_cell_length_c   13.46531717
_cell_angle_alpha   90.00000000
_cell_angle_beta   90.00000000
_cell_angle_gamma   90.00000000
_symmetry_Int_Tables_number   1
_chemical_formula_structural   NaSbO12
_chemical_formula_sum   'Na2 Sb2 O24'
_cell_volume   588.11203576
_cell_formula_units_Z   2
loop_
 _symmetry_equiv_pos_site_id
 _symmetry_equiv_pos_as_xyz
  1  'x, y, z'
loop_
 _atom_site_type_symbol
 _atom_site_label
 _atom_site_symmetry_multiplicity
 _atom_site_fract_x
 _atom_site_fract_y
 _atom_site_fract_z
 _atom_site_occupancy
  O  O0  1  0.25925456  0.25904838  0.93020763  1.0
  O  O1  1  0.75925456  0.75904838  0.56979237  1.0
  O  O2  1  0.25904838  0.74074544  0.06979237  1.0
  O  O3  1  0.75904838  0.24074544  0.43020763  1.0
  O  O4  1  0.74074544  0.74095162  0.93020763  1.0
  O  O5  1  0.24074544  0.24095162  0.56979237  1.0
  O  O6  1  0.74095162  0.25925456  0.06979237  1.0
  O  O7  1  0.24095162  0.75925456  0.43020763  1.0
  O  O8  1  0.43470921  0.06545515  0.25017137  1.0
  O  O9  1  0.93470921  0.56545515  0.24982863  1.0
  O  O10  1  0.06545515  0.56529079  0.74982863  1.0
  O  O11  1  0.56545515  0.06529079  0.75017137  1.0
  O  O12  1  0.56529079  0.93454485  0.25017137  1.0
  O  O13  1  0.06529079  0.43454485  0.24982863  1.0
  O  O14  1  0.93454485  0.43470921  0.74982863  1.0
  O  O15  1  0.43454485  0.93470921  0.75017137  1.0
  O  O16  1  0.24523731  0.75517970  0.53034214  1.0
  O  O17  1  0.74523731  0.25517970  -0.03034214  1.0
  O  O18  1  0.75517970  0.75476269  0.46965786  1.0
  O  O19  1  0.25517970  0.25476269  1.03034214  1.0
  O  O20  1  0.75476269  0.24482030  0.53034214  1.0
  O  O21  1  0.25476269  0.74482030  -0.03034214  1.0
  O  O22  1  0.24482030  0.24523731  0.46965786  1.0
  O  O23  1  0.74482030  0.74523731  1.03034214  1.0
  Sb  Sb24  1  0.50000000  0.50000000  0.00000000  1.0
  Sb  Sb25  1  0.00000000  0.00000000  0.50000000  1.0
  Na  Na26  1  0.50000000  0.50000000  0.50000000  1.0
  Na  Na27  1  0.00000000  0.00000000  0.00000000  1.0
