# generated using pymatgen
data_Rb2SbAuS4
_symmetry_space_group_name_H-M   'P 1'
_cell_length_a   7.03707070
_cell_length_b   20.52143728
_cell_length_c   7.35901412
_cell_angle_alpha   90.00000000
_cell_angle_beta   90.00000000
_cell_angle_gamma   90.00000000
_symmetry_Int_Tables_number   1
_chemical_formula_structural   Rb2SbAuS4
_chemical_formula_sum   'Rb8 Sb4 Au4 S16'
_cell_volume   1062.72115236
_cell_formula_units_Z   4
loop_
 _symmetry_equiv_pos_site_id
 _symmetry_equiv_pos_as_xyz
  1  'x, y, z'
loop_
 _atom_site_type_symbol
 _atom_site_label
 _atom_site_symmetry_multiplicity
 _atom_site_fract_x
 _atom_site_fract_y
 _atom_site_fract_z
 _atom_site_occupancy
  Rb  Rb0  1  0.91553349  0.17179275  0.25000000  1.0
  Rb  Rb1  1  0.91553349  0.32820725  0.75000000  1.0
  Rb  Rb2  1  0.08446651  0.67179275  0.25000000  1.0
  Rb  Rb3  1  0.08446651  0.82820725  0.75000000  1.0
  Rb  Rb4  1  0.70316564  0.48805930  0.25000000  1.0
  Rb  Rb5  1  0.70316564  0.01194070  0.75000000  1.0
  Rb  Rb6  1  0.29683436  0.98805930  0.25000000  1.0
  Rb  Rb7  1  0.29683436  0.51194070  0.75000000  1.0
  Sb  Sb8  1  0.79651294  0.88962122  0.25000000  1.0
  Sb  Sb9  1  0.79651294  0.61037878  0.75000000  1.0
  Sb  Sb10  1  0.20348706  0.38962122  0.25000000  1.0
  Sb  Sb11  1  0.20348706  0.11037878  0.75000000  1.0
  Au  Au12  1  0.38291559  0.25000000  0.50000000  1.0
  Au  Au13  1  0.38291559  0.25000000  -0.00000000  1.0
  Au  Au14  1  0.61708441  0.75000000  0.50000000  1.0
  Au  Au15  1  0.61708441  0.75000000  -0.00000000  1.0
  S  S16  1  0.38329087  0.13813004  0.48152460  1.0
  S  S17  1  0.38329087  0.13813004  0.01847540  1.0
  S  S18  1  0.38329087  0.36186996  0.98152460  1.0
  S  S19  1  0.38329087  0.36186996  0.51847540  1.0
  S  S20  1  0.61670913  0.63813004  0.48152460  1.0
  S  S21  1  0.61670913  0.63813004  0.01847540  1.0
  S  S22  1  0.61670913  0.86186996  0.98152460  1.0
  S  S23  1  0.61670913  0.86186996  0.51847540  1.0
  S  S24  1  0.90519534  0.34005490  0.25000000  1.0
  S  S25  1  0.90519534  0.15994510  0.75000000  1.0
  S  S26  1  0.09480466  0.84005490  0.25000000  1.0
  S  S27  1  0.09480466  0.65994510  0.75000000  1.0
  S  S28  1  0.79730703  0.00365383  0.25000000  1.0
  S  S29  1  0.79730703  0.49634617  0.75000000  1.0
  S  S30  1  0.20269297  0.50365383  0.25000000  1.0
  S  S31  1  0.20269297  0.99634617  0.75000000  1.0
