# generated using pymatgen
data_Nb4Fe4Si7
_symmetry_space_group_name_H-M   'P 1'
_cell_length_a   9.26929378
_cell_length_b   9.26929378
_cell_length_c   9.26929378
_cell_angle_alpha   94.14148129
_cell_angle_beta   94.14148129
_cell_angle_gamma   148.82175424
_symmetry_Int_Tables_number   1
_chemical_formula_structural   Nb4Fe4Si7
_chemical_formula_sum   'Nb8 Fe8 Si14'
_cell_volume   397.13902148
_cell_formula_units_Z   2
loop_
 _symmetry_equiv_pos_site_id
 _symmetry_equiv_pos_as_xyz
  1  'x, y, z'
loop_
 _atom_site_type_symbol
 _atom_site_label
 _atom_site_symmetry_multiplicity
 _atom_site_fract_x
 _atom_site_fract_y
 _atom_site_fract_z
 _atom_site_occupancy
  Nb  Nb0  1  0.00000000  0.80817216  0.80817216  1.0
  Nb  Nb1  1  0.80817216  1.00000000  0.80817216  1.0
  Nb  Nb2  1  1.19182784  1.00000000  1.19182784  1.0
  Nb  Nb3  1  0.00000000  0.19182784  0.19182784  1.0
  Nb  Nb4  1  0.63486250  0.63486250  0.26972500  1.0
  Nb  Nb5  1  1.36513750  0.63486250  1.00000000  1.0
  Nb  Nb6  1  0.63486250  0.36513750  1.00000000  1.0
  Nb  Nb7  1  0.36513750  0.36513750  0.73027500  1.0
  Fe  Fe8  1  1.10047133  0.60047133  1.20094266  1.0
  Fe  Fe9  1  1.60047133  1.10047133  1.20094266  1.0
  Fe  Fe10  1  0.39952867  0.60047133  0.50000000  1.0
  Fe  Fe11  1  0.89952867  1.10047133  0.50000000  1.0
  Fe  Fe12  1  1.10047133  0.89952867  1.50000000  1.0
  Fe  Fe13  1  1.60047133  1.39952867  1.50000000  1.0
  Fe  Fe14  1  0.39952867  0.89952867  0.79905734  1.0
  Fe  Fe15  1  0.89952867  1.39952867  0.79905734  1.0
  Si  Si16  1  0.50000000  0.79638332  0.29638332  1.0
  Si  Si17  1  0.79638332  0.50000000  1.29638332  1.0
  Si  Si18  1  0.20361668  0.50000000  0.70361668  1.0
  Si  Si19  1  0.50000000  1.20361668  0.70361668  1.0
  Si  Si20  1  0.00000000  0.59411742  0.59411742  1.0
  Si  Si21  1  0.59411742  1.00000000  0.59411742  1.0
  Si  Si22  1  1.40588258  1.00000000  1.40588258  1.0
  Si  Si23  1  0.00000000  0.40588258  0.40588258  1.0
  Si  Si24  1  0.79131525  0.79131525  0.58263050  1.0
  Si  Si25  1  1.20868475  0.79131525  1.00000000  1.0
  Si  Si26  1  0.79131525  0.20868475  1.00000000  1.0
  Si  Si27  1  0.20868475  0.20868475  0.41736950  1.0
  Si  Si28  1  0.74916320  0.74916320  0.00000000  1.0
  Si  Si29  1  0.25083680  0.25083680  -0.00000000  1.0
