# generated using pymatgen
data_KBi
_symmetry_space_group_name_H-M   'P 1'
_cell_length_a   14.52801124
_cell_length_b   7.39953381
_cell_length_c   13.67454307
_cell_angle_alpha   90.00000000
_cell_angle_beta   113.43770784
_cell_angle_gamma   90.00000000
_symmetry_Int_Tables_number   1
_chemical_formula_structural   KBi
_chemical_formula_sum   'K16 Bi16'
_cell_volume   1348.73346843
_cell_formula_units_Z   16
loop_
 _symmetry_equiv_pos_site_id
 _symmetry_equiv_pos_as_xyz
  1  'x, y, z'
loop_
 _atom_site_type_symbol
 _atom_site_label
 _atom_site_symmetry_multiplicity
 _atom_site_fract_x
 _atom_site_fract_y
 _atom_site_fract_z
 _atom_site_occupancy
  K  K0  1  0.87988306  0.88309632  0.85312828  1.0
  K  K1  1  0.87988306  0.61690368  0.35312828  1.0
  K  K2  1  0.12011694  0.38309632  0.64687172  1.0
  K  K3  1  0.12011694  0.11690368  0.14687172  1.0
  K  K4  1  0.60358865  0.69793641  0.96236285  1.0
  K  K5  1  0.60358865  0.80206359  0.46236285  1.0
  K  K6  1  0.39641135  0.19793641  0.53763715  1.0
  K  K7  1  0.39641135  0.30206359  0.03763715  1.0
  K  K8  1  0.34565111  0.92711327  0.80628421  1.0
  K  K9  1  0.34565111  0.57288673  0.30628421  1.0
  K  K10  1  0.65434889  0.42711327  0.69371579  1.0
  K  K11  1  0.65434889  0.07288673  0.19371579  1.0
  K  K12  1  0.15156095  0.64109047  0.94638453  1.0
  K  K13  1  0.15156095  0.85890953  0.44638453  1.0
  K  K14  1  0.84843905  0.14109047  0.55361547  1.0
  K  K15  1  0.84843905  0.35890953  0.05361547  1.0
  Bi  Bi16  1  0.92693485  0.37188235  0.81774608  1.0
  Bi  Bi17  1  0.92693485  0.12811765  0.31774608  1.0
  Bi  Bi18  1  0.07306515  0.87188235  0.68225392  1.0
  Bi  Bi19  1  0.07306515  0.62811765  0.18225392  1.0
  Bi  Bi20  1  0.88899206  0.62824246  0.62923607  1.0
  Bi  Bi21  1  0.88899206  0.87175754  0.12923607  1.0
  Bi  Bi22  1  0.11100794  0.12824246  0.87076393  1.0
  Bi  Bi23  1  0.11100794  0.37175754  0.37076393  1.0
  Bi  Bi24  1  0.60799178  0.93593358  0.72903661  1.0
  Bi  Bi25  1  0.60799178  0.56406642  0.22903661  1.0
  Bi  Bi26  1  0.39200822  0.43593358  0.77096339  1.0
  Bi  Bi27  1  0.39200822  0.06406642  0.27096339  1.0
  Bi  Bi28  1  0.42272472  0.70340237  0.61184070  1.0
  Bi  Bi29  1  0.42272472  0.79659763  0.11184070  1.0
  Bi  Bi30  1  0.57727528  0.20340237  0.88815930  1.0
  Bi  Bi31  1  0.57727528  0.29659763  0.38815930  1.0
