# generated using pymatgen
data_Nb6Fe16Si7
_symmetry_space_group_name_H-M   'P 1'
_cell_length_a   7.94102948
_cell_length_b   7.94102948
_cell_length_c   7.94102948
_cell_angle_alpha   60.00000000
_cell_angle_beta   60.00000000
_cell_angle_gamma   60.00000000
_symmetry_Int_Tables_number   1
_chemical_formula_structural   Nb6Fe16Si7
_chemical_formula_sum   'Nb6 Fe16 Si7'
_cell_volume   354.09143979
_cell_formula_units_Z   1
loop_
 _symmetry_equiv_pos_site_id
 _symmetry_equiv_pos_as_xyz
  1  'x, y, z'
loop_
 _atom_site_type_symbol
 _atom_site_label
 _atom_site_symmetry_multiplicity
 _atom_site_fract_x
 _atom_site_fract_y
 _atom_site_fract_z
 _atom_site_occupancy
  Fe  Fe0  1  0.67335041  0.67335041  -0.32664959  1.0
  Fe  Fe1  1  1.32664959  0.32664959  0.02005124  1.0
  Fe  Fe2  1  1.32664959  0.02005124  0.32664959  1.0
  Fe  Fe3  1  0.97994876  0.67335041  -0.32664959  1.0
  Fe  Fe4  1  1.02005124  0.32664959  0.32664959  1.0
  Fe  Fe5  1  0.67335041  0.97994876  -0.32664959  1.0
  Fe  Fe6  1  0.67335041  0.67335041  -0.02005124  1.0
  Fe  Fe7  1  1.32664959  0.32664959  0.32664959  1.0
  Fe  Fe8  1  0.88070781  0.88070781  -0.11929219  1.0
  Fe  Fe9  1  1.11929219  0.11929219  0.64212342  1.0
  Fe  Fe10  1  1.11929219  0.64212342  0.11929219  1.0
  Fe  Fe11  1  0.35787658  0.88070781  -0.11929219  1.0
  Fe  Fe12  1  1.64212342  0.11929219  0.11929219  1.0
  Fe  Fe13  1  0.88070781  0.35787658  -0.11929219  1.0
  Fe  Fe14  1  0.88070781  0.88070781  -0.64212342  1.0
  Fe  Fe15  1  1.11929219  0.11929219  0.11929219  1.0
  Nb  Nb16  1  -0.70289258  0.70289258  0.70289258  1.0
  Nb  Nb17  1  -0.29710742  0.29710742  0.70289258  1.0
  Nb  Nb18  1  0.70289258  0.70289258  -0.70289258  1.0
  Nb  Nb19  1  0.29710742  1.29710742  -0.29710742  1.0
  Nb  Nb20  1  0.29710742  -0.29710742  1.29710742  1.0
  Nb  Nb21  1  -0.29710742  0.29710742  0.29710742  1.0
  Si  Si22  1  1.50000000  0.00000000  -0.00000000  1.0
  Si  Si23  1  1.00000000  0.50000000  -0.50000000  1.0
  Si  Si24  1  0.00000000  1.50000000  -0.00000000  1.0
  Si  Si25  1  0.50000000  1.00000000  -0.50000000  1.0
  Si  Si26  1  0.00000000  0.00000000  0.50000000  1.0
  Si  Si27  1  0.50000000  -0.50000000  1.00000000  1.0
  Si  Si28  1  0.00000000  0.00000000  0.00000000  1.0
