# generated using pymatgen
data_Yb2B6Rh
_symmetry_space_group_name_H-M   'P 1'
_cell_length_a   9.09763549
_cell_length_b   11.46076366
_cell_length_c   3.58500258
_cell_angle_alpha   90.00000000
_cell_angle_beta   90.00000000
_cell_angle_gamma   90.00000000
_symmetry_Int_Tables_number   1
_chemical_formula_structural   Yb2B6Rh
_chemical_formula_sum   'Yb8 B24 Rh4'
_cell_volume   373.79334204
_cell_formula_units_Z   4
loop_
 _symmetry_equiv_pos_site_id
 _symmetry_equiv_pos_as_xyz
  1  'x, y, z'
loop_
 _atom_site_type_symbol
 _atom_site_label
 _atom_site_symmetry_multiplicity
 _atom_site_fract_x
 _atom_site_fract_y
 _atom_site_fract_z
 _atom_site_occupancy
  Yb  Yb0  1  0.17727099  0.91348504  0.50000000  1.0
  Yb  Yb1  1  0.67727099  0.58651496  0.50000000  1.0
  Yb  Yb2  1  0.82272901  0.08651496  0.50000000  1.0
  Yb  Yb3  1  0.32272901  0.41348504  0.50000000  1.0
  Yb  Yb4  1  0.05629599  0.62737543  0.50000000  1.0
  Yb  Yb5  1  0.55629599  0.87262457  0.50000000  1.0
  Yb  Yb6  1  0.94370401  0.37262457  0.50000000  1.0
  Yb  Yb7  1  0.44370401  0.12737543  0.50000000  1.0
  B  B8  1  0.01866675  0.78713683  0.00000000  1.0
  B  B9  1  0.51866675  0.71286317  0.00000000  1.0
  B  B10  1  0.98133325  0.21286317  0.00000000  1.0
  B  B11  1  0.48133325  0.28713683  0.00000000  1.0
  B  B12  1  0.44667150  0.56626631  0.00000000  1.0
  B  B13  1  0.94667150  0.93373369  0.00000000  1.0
  B  B14  1  0.55332850  0.43373369  0.00000000  1.0
  B  B15  1  0.05332850  0.06626631  0.00000000  1.0
  B  B16  1  0.39391833  0.97080625  0.00000000  1.0
  B  B17  1  0.89391833  0.52919375  0.00000000  1.0
  B  B18  1  0.60608167  0.02919375  0.00000000  1.0
  B  B19  1  0.10608167  0.47080625  0.00000000  1.0
  B  B20  1  0.36830082  0.81645262  0.00000000  1.0
  B  B21  1  0.86830082  0.68354738  0.00000000  1.0
  B  B22  1  0.63169918  0.18354738  0.00000000  1.0
  B  B23  1  0.13169918  0.31645262  0.00000000  1.0
  B  B24  1  0.25027014  0.57919932  0.00000000  1.0
  B  B25  1  0.75027014  0.92080068  0.00000000  1.0
  B  B26  1  0.74972986  0.42080068  0.00000000  1.0
  B  B27  1  0.24972986  0.07919932  0.00000000  1.0
  B  B28  1  0.20761214  0.73481645  0.00000000  1.0
  B  B29  1  0.70761214  0.76518355  0.00000000  1.0
  B  B30  1  0.79238786  0.26518355  0.00000000  1.0
  B  B31  1  0.29238786  0.23481645  0.00000000  1.0
  Rh  Rh32  1  0.36196650  0.67885926  0.50000000  1.0
  Rh  Rh33  1  0.86196650  0.82114074  0.50000000  1.0
  Rh  Rh34  1  0.63803350  0.32114074  0.50000000  1.0
  Rh  Rh35  1  0.13803350  0.17885926  0.50000000  1.0
