# generated using pymatgen
data_Zr6Ga16Ir7
_symmetry_space_group_name_H-M   'P 1'
_cell_length_a   8.79129896
_cell_length_b   8.79129896
_cell_length_c   8.79129896
_cell_angle_alpha   60.00000000
_cell_angle_beta   60.00000000
_cell_angle_gamma   60.00000000
_symmetry_Int_Tables_number   1
_chemical_formula_structural   Zr6Ga16Ir7
_chemical_formula_sum   'Zr6 Ga16 Ir7'
_cell_volume   480.44552202
_cell_formula_units_Z   1
loop_
 _symmetry_equiv_pos_site_id
 _symmetry_equiv_pos_as_xyz
  1  'x, y, z'
loop_
 _atom_site_type_symbol
 _atom_site_label
 _atom_site_symmetry_multiplicity
 _atom_site_fract_x
 _atom_site_fract_y
 _atom_site_fract_z
 _atom_site_occupancy
  Zr  Zr0  1  -0.69520240  0.69520240  0.69520240  1.0
  Zr  Zr1  1  -0.30479760  0.30479760  0.69520240  1.0
  Zr  Zr2  1  0.69520240  0.69520240  -0.69520240  1.0
  Zr  Zr3  1  0.30479760  1.30479760  -0.30479760  1.0
  Zr  Zr4  1  0.30479760  -0.30479760  1.30479760  1.0
  Zr  Zr5  1  -0.30479760  0.30479760  0.30479760  1.0
  Ga  Ga6  1  0.87764343  0.87764343  -0.12235657  1.0
  Ga  Ga7  1  1.12235657  0.12235657  0.63293028  1.0
  Ga  Ga8  1  1.12235657  0.63293028  0.12235657  1.0
  Ga  Ga9  1  0.36706972  0.87764343  -0.12235657  1.0
  Ga  Ga10  1  1.63293028  0.12235657  0.12235657  1.0
  Ga  Ga11  1  0.87764343  0.36706972  -0.12235657  1.0
  Ga  Ga12  1  0.87764343  0.87764343  -0.63293028  1.0
  Ga  Ga13  1  1.12235657  0.12235657  0.12235657  1.0
  Ga  Ga14  1  0.65487405  0.65487405  -0.34512595  1.0
  Ga  Ga15  1  1.34512595  0.34512595  -0.03537784  1.0
  Ga  Ga16  1  1.34512595  -0.03537784  0.34512595  1.0
  Ga  Ga17  1  1.03537784  0.65487405  -0.34512595  1.0
  Ga  Ga18  1  0.96462216  0.34512595  0.34512595  1.0
  Ga  Ga19  1  0.65487405  1.03537784  -0.34512595  1.0
  Ga  Ga20  1  0.65487405  0.65487405  0.03537784  1.0
  Ga  Ga21  1  1.34512595  0.34512595  0.34512595  1.0
  Ir  Ir22  1  1.50000000  0.00000000  -0.00000000  1.0
  Ir  Ir23  1  1.00000000  0.50000000  -0.50000000  1.0
  Ir  Ir24  1  0.00000000  1.50000000  -0.00000000  1.0
  Ir  Ir25  1  0.50000000  1.00000000  -0.50000000  1.0
  Ir  Ir26  1  0.00000000  -0.00000000  0.50000000  1.0
  Ir  Ir27  1  0.50000000  -0.50000000  1.00000000  1.0
  Ir  Ir28  1  0.00000000  0.00000000  0.00000000  1.0
