# generated using pymatgen
data_Zr2NiP
_symmetry_space_group_name_H-M   'P 1'
_cell_length_a   5.26134897
_cell_length_b   3.64918852
_cell_length_c   7.49042314
_cell_angle_alpha   90.00000000
_cell_angle_beta   110.76475034
_cell_angle_gamma   90.00000000
_symmetry_Int_Tables_number   1
_chemical_formula_structural   Zr2NiP
_chemical_formula_sum   'Zr4 Ni2 P2'
_cell_volume   134.47197827
_cell_formula_units_Z   2
loop_
 _symmetry_equiv_pos_site_id
 _symmetry_equiv_pos_as_xyz
  1  'x, y, z'
loop_
 _atom_site_type_symbol
 _atom_site_label
 _atom_site_symmetry_multiplicity
 _atom_site_fract_x
 _atom_site_fract_y
 _atom_site_fract_z
 _atom_site_occupancy
  Zr  Zr0  1  0.71006993  0.25000000  0.93039297  1.0
  Zr  Zr1  1  0.28993007  0.75000000  0.06960703  1.0
  Zr  Zr2  1  0.70806625  0.25000000  0.42440978  1.0
  Zr  Zr3  1  0.29193375  0.75000000  0.57559022  1.0
  Ni  Ni4  1  0.14289451  0.25000000  0.79084776  1.0
  Ni  Ni5  1  0.85710549  0.75000000  0.20915224  1.0
  P  P6  1  0.14759361  0.25000000  0.28925790  1.0
  P  P7  1  0.85240639  0.75000000  0.71074210  1.0
