# generated using pymatgen
data_K2HS2NO6
_symmetry_space_group_name_H-M   'P 1'
_cell_length_a   7.68816218
_cell_length_b   7.68816218
_cell_length_c   7.24405047
_cell_angle_alpha   95.57861065
_cell_angle_beta   84.42138935
_cell_angle_gamma   119.74281177
_symmetry_Int_Tables_number   1
_chemical_formula_structural   K2HS2NO6
_chemical_formula_sum   'K4 H2 S4 N2 O12'
_cell_volume   369.41642671
_cell_formula_units_Z   2
loop_
 _symmetry_equiv_pos_site_id
 _symmetry_equiv_pos_as_xyz
  1  'x, y, z'
loop_
 _atom_site_type_symbol
 _atom_site_label
 _atom_site_symmetry_multiplicity
 _atom_site_fract_x
 _atom_site_fract_y
 _atom_site_fract_z
 _atom_site_occupancy
  K  K0  1  1.49003258  0.18556908  0.33792425  1.0
  K  K1  1  0.81443092  -0.49003258  0.83792425  1.0
  K  K2  1  1.18556908  0.49003258  0.16207575  1.0
  K  K3  1  0.50996742  -0.18556908  0.66207575  1.0
  H  H4  1  1.03629380  0.03629380  0.25000000  1.0
  H  H5  1  0.96370620  -0.03629380  0.75000000  1.0
  S  S6  1  0.71779338  -0.09419683  0.14884521  1.0
  S  S7  1  1.09419683  0.28220662  0.64884521  1.0
  S  S8  1  0.90580317  -0.28220662  0.35115479  1.0
  S  S9  1  1.28220662  0.09419683  0.85115479  1.0
  N  N10  1  0.90431006  -0.09568994  0.25000000  1.0
  N  N11  1  1.09568994  0.09568994  0.75000000  1.0
  O  O12  1  0.68418797  -0.21587470  0.97169096  1.0
  O  O13  1  1.21587470  0.31581203  0.47169096  1.0
  O  O14  1  0.78412530  -0.31581203  0.52830904  1.0
  O  O15  1  1.31581203  0.21587470  0.02830904  1.0
  O  O16  1  0.53950541  -0.18259537  0.27908734  1.0
  O  O17  1  1.18259537  0.46049459  0.77908734  1.0
  O  O18  1  0.81740463  -0.46049459  0.22091266  1.0
  O  O19  1  1.46049459  0.18259537  0.72091266  1.0
  O  O20  1  1.79697585  0.12026730  0.12594635  1.0
  O  O21  1  0.87973270  -0.79697585  0.62594635  1.0
  O  O22  1  1.12026730  0.79697585  0.37405365  1.0
  O  O23  1  0.20302415  -0.12026730  0.87405365  1.0
