# generated using pymatgen
data_Y(FeGe)6
_symmetry_space_group_name_H-M   'P 1'
_cell_length_a   9.74772975
_cell_length_b   9.74772975
_cell_length_c   5.11835629
_cell_angle_alpha   90.00000000
_cell_angle_beta   90.00000000
_cell_angle_gamma   130.49923446
_symmetry_Int_Tables_number   1
_chemical_formula_structural   Y(FeGe)6
_chemical_formula_sum   'Y2 Fe12 Ge12'
_cell_volume   369.81791464
_cell_formula_units_Z   2
loop_
 _symmetry_equiv_pos_site_id
 _symmetry_equiv_pos_as_xyz
  1  'x, y, z'
loop_
 _atom_site_type_symbol
 _atom_site_label
 _atom_site_symmetry_multiplicity
 _atom_site_fract_x
 _atom_site_fract_y
 _atom_site_fract_z
 _atom_site_occupancy
  Y  Y0  1  0.37270634  0.62729366  0.75000000  1.0
  Y  Y1  1  -0.37270634  0.37270634  0.25000000  1.0
  Fe  Fe2  1  -0.12486755  0.62517349  0.75000000  1.0
  Fe  Fe3  1  0.62517349  0.87513245  0.25000000  1.0
  Fe  Fe4  1  0.37482651  1.12486755  0.75000000  1.0
  Fe  Fe5  1  0.12486755  0.37482651  0.25000000  1.0
  Fe  Fe6  1  0.74928219  0.74928219  0.00000000  1.0
  Fe  Fe7  1  0.74928219  0.74928219  0.50000000  1.0
  Fe  Fe8  1  0.25071781  0.25071781  0.00000000  1.0
  Fe  Fe9  1  0.25071781  0.25071781  0.50000000  1.0
  Fe  Fe10  1  -0.00000000  0.50000000  0.00000000  1.0
  Fe  Fe11  1  -0.00000000  0.50000000  0.50000000  1.0
  Fe  Fe12  1  0.50000000  1.00000000  0.50000000  1.0
  Fe  Fe13  1  0.50000000  1.00000000  0.00000000  1.0
  Ge  Ge14  1  0.02908027  0.27767132  0.75000000  1.0
  Ge  Ge15  1  0.27767132  1.02908027  0.25000000  1.0
  Ge  Ge16  1  0.72232868  0.97091973  0.75000000  1.0
  Ge  Ge17  1  -0.02908027  0.72232868  0.25000000  1.0
  Ge  Ge18  1  0.04043534  0.95956466  0.75000000  1.0
  Ge  Ge19  1  -0.04043534  0.04043534  0.25000000  1.0
  Ge  Ge20  1  0.20448036  0.79551964  0.75000000  1.0
  Ge  Ge21  1  -0.20448036  0.20448036  0.25000000  1.0
  Ge  Ge22  1  -0.45790915  0.45790915  0.75000000  1.0
  Ge  Ge23  1  0.45790915  0.54209085  0.25000000  1.0
  Ge  Ge24  1  -0.28859357  0.28859357  0.75000000  1.0
  Ge  Ge25  1  0.28859357  0.71140643  0.25000000  1.0
