# generated using pymatgen
data_CsMo3Br3Cl4
_symmetry_space_group_name_H-M   'P 1'
_cell_length_a   10.20679536
_cell_length_b   10.20679536
_cell_length_c   16.54312346
_cell_angle_alpha   90.00000000
_cell_angle_beta   90.00000000
_cell_angle_gamma   120.00000000
_symmetry_Int_Tables_number   1
_chemical_formula_structural   CsMo3Br3Cl4
_chemical_formula_sum   'Cs4 Mo12 Br12 Cl16'
_cell_volume   1492.54336256
_cell_formula_units_Z   4
loop_
 _symmetry_equiv_pos_site_id
 _symmetry_equiv_pos_as_xyz
  1  'x, y, z'
loop_
 _atom_site_type_symbol
 _atom_site_label
 _atom_site_symmetry_multiplicity
 _atom_site_fract_x
 _atom_site_fract_y
 _atom_site_fract_z
 _atom_site_occupancy
  Cs  Cs0  1  0.33333333  0.66666667  0.28573824  1.0
  Cs  Cs1  1  0.66666667  0.33333333  0.78573824  1.0
  Cs  Cs2  1  0.00000000  0.00000000  0.03335866  1.0
  Cs  Cs3  1  0.00000000  0.00000000  0.53335866  1.0
  Mo  Mo4  1  0.66624676  0.48136374  0.21932753  1.0
  Mo  Mo5  1  0.48136374  0.66624676  0.71932753  1.0
  Mo  Mo6  1  0.81511698  0.33375324  0.21932753  1.0
  Mo  Mo7  1  0.51863626  0.18488302  0.21932753  1.0
  Mo  Mo8  1  0.33375324  0.81511698  0.71932753  1.0
  Mo  Mo9  1  0.18488302  0.51863626  0.71932753  1.0
  Mo  Mo10  1  0.81555686  0.48088084  0.34829702  1.0
  Mo  Mo11  1  0.48088084  0.81555686  0.84829702  1.0
  Mo  Mo12  1  0.66532398  0.18444314  0.34829702  1.0
  Mo  Mo13  1  0.51911916  0.33467602  0.34829702  1.0
  Mo  Mo14  1  0.18444314  0.66532398  0.84829702  1.0
  Mo  Mo15  1  0.33467602  0.51911916  0.84829702  1.0
  Br  Br16  1  0.30910370  0.96470341  0.13419029  1.0
  Br  Br17  1  0.96470341  0.30910370  0.63419029  1.0
  Br  Br18  1  0.65559971  0.69089630  0.13419029  1.0
  Br  Br19  1  0.03529659  0.34440029  0.13419029  1.0
  Br  Br20  1  0.69089630  0.65559971  0.63419029  1.0
  Br  Br21  1  0.34440029  0.03529659  0.63419029  1.0
  Br  Br22  1  0.03614044  0.69007350  0.43348804  1.0
  Br  Br23  1  0.69007350  0.03614044  0.93348804  1.0
  Br  Br24  1  0.65393306  0.96385956  0.43348804  1.0
  Br  Br25  1  0.30992650  0.34606694  0.43348804  1.0
  Br  Br26  1  0.96385956  0.65393306  0.93348804  1.0
  Br  Br27  1  0.34606694  0.30992650  0.93348804  1.0
  Cl  Cl28  1  0.67035573  0.61608326  0.34622500  1.0
  Cl  Cl29  1  0.61608326  0.67035573  0.84622500  1.0
  Cl  Cl30  1  0.94572753  0.32964427  0.34622500  1.0
  Cl  Cl31  1  0.38391674  0.05427247  0.34622500  1.0
  Cl  Cl32  1  0.32964427  0.94572753  0.84622500  1.0
  Cl  Cl33  1  0.05427247  0.38391674  0.84622500  1.0
  Cl  Cl34  1  0.33333333  0.66666667  0.96713074  1.0
  Cl  Cl35  1  0.66666667  0.33333333  0.46713074  1.0
  Cl  Cl36  1  0.33333333  0.66666667  0.60048774  1.0
  Cl  Cl37  1  0.66666667  0.33333333  0.10048774  1.0
  Cl  Cl38  1  0.94660544  0.61516130  0.22143366  1.0
  Cl  Cl39  1  0.61516130  0.94660544  0.72143366  1.0
  Cl  Cl40  1  0.66855586  0.05339456  0.22143366  1.0
  Cl  Cl41  1  0.38483870  0.33144414  0.22143366  1.0
  Cl  Cl42  1  0.05339456  0.66855586  0.72143366  1.0
  Cl  Cl43  1  0.33144414  0.38483870  0.72143366  1.0
