# generated using pymatgen
data_Be12W
_symmetry_space_group_name_H-M   'P 1'
_cell_length_a   5.50285359
_cell_length_b   5.50285359
_cell_length_c   5.50285359
_cell_angle_alpha   98.36646203
_cell_angle_beta   98.36646203
_cell_angle_gamma   135.15297130
_symmetry_Int_Tables_number   1
_chemical_formula_structural   Be12W
_chemical_formula_sum   'Be12 W1'
_cell_volume   108.62788037
_cell_formula_units_Z   1
loop_
 _symmetry_equiv_pos_site_id
 _symmetry_equiv_pos_as_xyz
  1  'x, y, z'
loop_
 _atom_site_type_symbol
 _atom_site_label
 _atom_site_symmetry_multiplicity
 _atom_site_fract_x
 _atom_site_fract_y
 _atom_site_fract_z
 _atom_site_occupancy
  Be  Be0  1  0.50000000  0.71109050  0.21109050  1.0
  Be  Be1  1  0.71109050  0.50000000  1.21109050  1.0
  Be  Be2  1  0.28890950  0.50000000  0.78890950  1.0
  Be  Be3  1  0.50000000  1.28890950  0.78890950  1.0
  Be  Be4  1  -0.00000000  0.64896615  0.64896615  1.0
  Be  Be5  1  0.64896615  1.00000000  0.64896615  1.0
  Be  Be6  1  1.35103385  1.00000000  1.35103385  1.0
  Be  Be7  1  -0.00000000  0.35103385  0.35103385  1.0
  Be  Be8  1  0.50000000  0.50000000  0.50000000  1.0
  Be  Be9  1  1.00000000  1.00000000  0.50000000  1.0
  Be  Be10  1  1.00000000  0.50000000  1.00000000  1.0
  Be  Be11  1  1.50000000  1.00000000  1.00000000  1.0
  W  W12  1  0.00000000  0.00000000  0.00000000  1.0
