# generated using pymatgen
data_Ti6Co16Si7
_symmetry_space_group_name_H-M   'P 1'
_cell_length_a   7.84401366
_cell_length_b   7.84401366
_cell_length_c   7.84401366
_cell_angle_alpha   60.00000000
_cell_angle_beta   60.00000000
_cell_angle_gamma   60.00000000
_symmetry_Int_Tables_number   1
_chemical_formula_structural   Ti6Co16Si7
_chemical_formula_sum   'Ti6 Co16 Si7'
_cell_volume   341.27150415
_cell_formula_units_Z   1
loop_
 _symmetry_equiv_pos_site_id
 _symmetry_equiv_pos_as_xyz
  1  'x, y, z'
loop_
 _atom_site_type_symbol
 _atom_site_label
 _atom_site_symmetry_multiplicity
 _atom_site_fract_x
 _atom_site_fract_y
 _atom_site_fract_z
 _atom_site_occupancy
  Ti  Ti0  1  -0.70000891  0.70000891  0.70000891  1.0
  Ti  Ti1  1  -0.29999109  0.29999109  0.70000891  1.0
  Ti  Ti2  1  0.70000891  0.70000891  -0.70000891  1.0
  Ti  Ti3  1  0.29999109  1.29999109  -0.29999109  1.0
  Ti  Ti4  1  0.29999109  -0.29999109  1.29999109  1.0
  Ti  Ti5  1  -0.29999109  0.29999109  0.29999109  1.0
  Co  Co6  1  0.88073344  0.88073344  -0.11926656  1.0
  Co  Co7  1  1.11926656  0.11926656  0.64220033  1.0
  Co  Co8  1  1.11926656  0.64220033  0.11926656  1.0
  Co  Co9  1  0.35779967  0.88073344  -0.11926656  1.0
  Co  Co10  1  1.64220033  0.11926656  0.11926656  1.0
  Co  Co11  1  0.88073344  0.35779967  -0.11926656  1.0
  Co  Co12  1  0.88073344  0.88073344  -0.64220033  1.0
  Co  Co13  1  1.11926656  0.11926656  0.11926656  1.0
  Co  Co14  1  0.66658097  0.66658097  -0.33341903  1.0
  Co  Co15  1  1.33341903  0.33341903  -0.00025709  1.0
  Co  Co16  1  1.33341903  -0.00025709  0.33341903  1.0
  Co  Co17  1  1.00025709  0.66658097  -0.33341903  1.0
  Co  Co18  1  0.99974291  0.33341903  0.33341903  1.0
  Co  Co19  1  0.66658097  1.00025709  -0.33341903  1.0
  Co  Co20  1  0.66658097  0.66658097  0.00025709  1.0
  Co  Co21  1  1.33341903  0.33341903  0.33341903  1.0
  Si  Si22  1  1.50000000  0.00000000  -0.00000000  1.0
  Si  Si23  1  1.00000000  0.50000000  -0.50000000  1.0
  Si  Si24  1  0.00000000  1.50000000  -0.00000000  1.0
  Si  Si25  1  0.50000000  1.00000000  -0.50000000  1.0
  Si  Si26  1  0.00000000  -0.00000000  0.50000000  1.0
  Si  Si27  1  0.50000000  -0.50000000  1.00000000  1.0
  Si  Si28  1  -0.00000000  0.00000000  0.00000000  1.0
