# generated using pymatgen
data_Sc2TlCu3Se5
_symmetry_space_group_name_H-M   'P 1'
_cell_length_a   7.42039132
_cell_length_b   7.42039132
_cell_length_c   16.37933043
_cell_angle_alpha   90.00000000
_cell_angle_beta   90.00000000
_cell_angle_gamma   148.81300861
_symmetry_Int_Tables_number   1
_chemical_formula_structural   Sc2TlCu3Se5
_chemical_formula_sum   'Sc4 Tl2 Cu6 Se10'
_cell_volume   467.02411913
_cell_formula_units_Z   2
loop_
 _symmetry_equiv_pos_site_id
 _symmetry_equiv_pos_as_xyz
  1  'x, y, z'
loop_
 _atom_site_type_symbol
 _atom_site_label
 _atom_site_symmetry_multiplicity
 _atom_site_fract_x
 _atom_site_fract_y
 _atom_site_fract_z
 _atom_site_occupancy
  Sc  Sc0  1  0.30963699  0.69036301  0.40702232  1.0
  Sc  Sc1  1  0.30963699  0.69036301  0.09297768  1.0
  Sc  Sc2  1  -0.30963699  0.30963699  0.90702232  1.0
  Sc  Sc3  1  -0.30963699  0.30963699  0.59297768  1.0
  Tl  Tl4  1  0.43613171  0.56386829  0.75000000  1.0
  Tl  Tl5  1  -0.43613171  0.43613171  0.25000000  1.0
  Cu  Cu6  1  0.08558280  0.91441720  0.46883560  1.0
  Cu  Cu7  1  0.08558280  0.91441720  0.03116440  1.0
  Cu  Cu8  1  -0.08558280  0.08558280  0.96883560  1.0
  Cu  Cu9  1  -0.08558280  0.08558280  0.53116440  1.0
  Cu  Cu10  1  0.15558429  0.84441571  0.75000000  1.0
  Cu  Cu11  1  -0.15558429  0.15558429  0.25000000  1.0
  Se  Se12  1  0.06140596  0.93859404  0.88207735  1.0
  Se  Se13  1  0.06140596  0.93859404  0.61792265  1.0
  Se  Se14  1  -0.06140596  0.06140596  0.38207735  1.0
  Se  Se15  1  -0.06140596  0.06140596  0.11792265  1.0
  Se  Se16  1  0.32683593  0.67316407  0.92831086  1.0
  Se  Se17  1  0.32683593  0.67316407  0.57168914  1.0
  Se  Se18  1  -0.32683593  0.32683593  0.42831086  1.0
  Se  Se19  1  -0.32683593  0.32683593  0.07168914  1.0
  Se  Se20  1  -0.24950278  0.24950278  0.75000000  1.0
  Se  Se21  1  0.24950278  0.75049722  0.25000000  1.0
