# generated using pymatgen
data_HN
_symmetry_space_group_name_H-M   'P 1'
_cell_length_a   4.40410161
_cell_length_b   5.31196117
_cell_length_c   4.40482583
_cell_angle_alpha   64.80165658
_cell_angle_beta   124.51243557
_cell_angle_gamma   115.17608325
_symmetry_Int_Tables_number   1
_chemical_formula_structural   HN
_chemical_formula_sum   'H4 N4'
_cell_volume   74.45086256
_cell_formula_units_Z   4
loop_
 _symmetry_equiv_pos_site_id
 _symmetry_equiv_pos_as_xyz
  1  'x, y, z'
loop_
 _atom_site_type_symbol
 _atom_site_label
 _atom_site_symmetry_multiplicity
 _atom_site_fract_x
 _atom_site_fract_y
 _atom_site_fract_z
 _atom_site_occupancy
  H  H0  1  0.00000000  0.00000000  0.00000000  1.0
  H  H1  1  0.20332406  -0.73137878  -0.70391626  1.0
  H  H2  1  -1.20332406  -0.26862122  -0.29608374  1.0
  H  H3  1  -0.50000000  0.00000000  -0.50000000  1.0
  N  N4  1  -0.28967935  -0.16959020  -0.21015000  1.0
  N  N5  1  -0.71032065  -0.83040980  -0.78985000  1.0
  N  N6  1  -0.51465130  -0.62774822  0.01472723  1.0
  N  N7  1  -0.48534870  -0.37225178  -1.01472723  1.0
