# generated using pymatgen
data_Pr2Fe17C3
_symmetry_space_group_name_H-M   'P 1'
_cell_length_a   6.52308763
_cell_length_b   6.52308763
_cell_length_c   6.52308763
_cell_angle_alpha   83.59280193
_cell_angle_beta   83.59280193
_cell_angle_gamma   83.59280193
_symmetry_Int_Tables_number   1
_chemical_formula_structural   Pr2Fe17C3
_chemical_formula_sum   'Pr2 Fe17 C3'
_cell_volume   272.72048329
_cell_formula_units_Z   1
loop_
 _symmetry_equiv_pos_site_id
 _symmetry_equiv_pos_as_xyz
  1  'x, y, z'
loop_
 _atom_site_type_symbol
 _atom_site_label
 _atom_site_symmetry_multiplicity
 _atom_site_fract_x
 _atom_site_fract_y
 _atom_site_fract_z
 _atom_site_occupancy
  Pr  Pr0  1  0.65523089  0.65523089  -0.34476911  1.0
  Pr  Pr1  1  0.34476911  0.34476911  -0.65523089  1.0
  Fe  Fe2  1  0.34143199  0.34143199  -0.14214295  1.0
  Fe  Fe3  1  0.34143199  0.85785705  -0.65856801  1.0
  Fe  Fe4  1  1.14214295  -0.34143199  -0.34143199  1.0
  Fe  Fe5  1  0.65856801  0.14214295  -0.34143199  1.0
  Fe  Fe6  1  0.65856801  -0.34143199  0.14214295  1.0
  Fe  Fe7  1  0.85785705  0.34143199  -0.65856801  1.0
  Fe  Fe8  1  0.71693550  0.00000000  0.28306450  1.0
  Fe  Fe9  1  0.71693550  -0.71693550  -0.00000000  1.0
  Fe  Fe10  1  0.00000000  0.71693550  -0.71693550  1.0
  Fe  Fe11  1  -0.00000000  0.28306450  -0.28306450  1.0
  Fe  Fe12  1  1.28306450  0.00000000  -0.28306450  1.0
  Fe  Fe13  1  0.28306450  -0.28306450  -0.00000000  1.0
  Fe  Fe14  1  1.00000000  1.50000000  0.00000000  1.0
  Fe  Fe15  1  1.00000000  0.00000000  -0.50000000  1.0
  Fe  Fe16  1  0.50000000  0.00000000  0.00000000  1.0
  Fe  Fe17  1  0.90525586  0.90525586  -0.09474414  1.0
  Fe  Fe18  1  1.09474414  1.09474414  0.09474414  1.0
  C  C19  1  0.50000000  1.00000000  -0.50000000  1.0
  C  C20  1  0.50000000  -0.50000000  -0.00000000  1.0
  C  C21  1  -0.00000000  0.50000000  -0.50000000  1.0
