# generated using pymatgen
data_Ag4Bi2O5
_symmetry_space_group_name_H-M   'P 1'
_cell_length_a   14.55789144
_cell_length_b   5.99920976
_cell_length_c   8.79031273
_cell_angle_alpha   90.00000000
_cell_angle_beta   90.00000000
_cell_angle_gamma   90.00000000
_symmetry_Int_Tables_number   1
_chemical_formula_structural   Ag4Bi2O5
_chemical_formula_sum   'Ag16 Bi8 O20'
_cell_volume   767.70938467
_cell_formula_units_Z   4
loop_
 _symmetry_equiv_pos_site_id
 _symmetry_equiv_pos_as_xyz
  1  'x, y, z'
loop_
 _atom_site_type_symbol
 _atom_site_label
 _atom_site_symmetry_multiplicity
 _atom_site_fract_x
 _atom_site_fract_y
 _atom_site_fract_z
 _atom_site_occupancy
  Ag  Ag0  1  0.41834529  0.98637589  0.35594695  1.0
  Ag  Ag1  1  0.41834529  0.51362411  0.14405305  1.0
  Ag  Ag2  1  0.91834529  0.98637589  0.64405305  1.0
  Ag  Ag3  1  0.91834529  0.51362411  0.85594695  1.0
  Ag  Ag4  1  0.58165471  0.48637589  0.85594695  1.0
  Ag  Ag5  1  0.58165471  0.01362411  0.64405305  1.0
  Ag  Ag6  1  0.08165471  0.48637589  0.14405305  1.0
  Ag  Ag7  1  0.08165471  0.01362411  0.35594695  1.0
  Ag  Ag8  1  0.24720723  0.75000000  0.25000000  1.0
  Ag  Ag9  1  0.74720723  0.75000000  0.75000000  1.0
  Ag  Ag10  1  0.75279277  0.25000000  0.75000000  1.0
  Ag  Ag11  1  0.25279277  0.25000000  0.25000000  1.0
  Ag  Ag12  1  0.25000000  0.00000000  0.56355751  1.0
  Ag  Ag13  1  0.25000000  0.50000000  0.93644249  1.0
  Ag  Ag14  1  0.75000000  0.00000000  0.43644249  1.0
  Ag  Ag15  1  0.75000000  0.50000000  0.06355751  1.0
  Bi  Bi16  1  0.88815180  0.98980863  0.08140879  1.0
  Bi  Bi17  1  0.88815180  0.51019137  0.41859121  1.0
  Bi  Bi18  1  0.38815180  0.98980863  0.91859121  1.0
  Bi  Bi19  1  0.38815180  0.51019137  0.58140879  1.0
  Bi  Bi20  1  0.11184820  0.48980863  0.58140879  1.0
  Bi  Bi21  1  0.11184820  0.01019137  0.91859121  1.0
  Bi  Bi22  1  0.61184820  0.48980863  0.41859121  1.0
  Bi  Bi23  1  0.61184820  0.01019137  0.08140879  1.0
  O  O24  1  0.38333056  0.86605734  0.58015197  1.0
  O  O25  1  0.38333056  0.63394266  0.91984803  1.0
  O  O26  1  0.88333056  0.86605734  0.41984803  1.0
  O  O27  1  0.88333056  0.63394266  0.08015197  1.0
  O  O28  1  0.61666944  0.36605734  0.08015197  1.0
  O  O29  1  0.61666944  0.13394266  0.41984803  1.0
  O  O30  1  0.11666944  0.36605734  0.91984803  1.0
  O  O31  1  0.11666944  0.13394266  0.58015197  1.0
  O  O32  1  0.04295771  0.94962761  0.12875713  1.0
  O  O33  1  0.04295771  0.55037239  0.37124287  1.0
  O  O34  1  0.54295771  0.94962761  0.87124287  1.0
  O  O35  1  0.54295771  0.55037239  0.62875713  1.0
  O  O36  1  0.95704229  0.44962761  0.62875713  1.0
  O  O37  1  0.95704229  0.05037239  0.87124287  1.0
  O  O38  1  0.45704229  0.44962761  0.37124287  1.0
  O  O39  1  0.45704229  0.05037239  0.12875713  1.0
  O  O40  1  0.25000000  0.00000000  0.06529876  1.0
  O  O41  1  0.25000000  0.50000000  0.43470124  1.0
  O  O42  1  0.75000000  0.00000000  0.93470124  1.0
  O  O43  1  0.75000000  0.50000000  0.56529876  1.0
