# generated using pymatgen
data_SbS
_symmetry_space_group_name_H-M   'P 1'
_cell_length_a   4.74457432
_cell_length_b   4.14155373
_cell_length_c   10.52432672
_cell_angle_alpha   87.38320215
_cell_angle_beta   77.22985907
_cell_angle_gamma   90.01001435
_symmetry_Int_Tables_number   1
_chemical_formula_structural   SbS
_chemical_formula_sum   'Sb2 S2'
_cell_volume   201.46525153
_cell_formula_units_Z   2
loop_
 _symmetry_equiv_pos_site_id
 _symmetry_equiv_pos_as_xyz
  1  'x, y, z'
loop_
 _atom_site_type_symbol
 _atom_site_label
 _atom_site_symmetry_multiplicity
 _atom_site_fract_x
 _atom_site_fract_y
 _atom_site_fract_z
 _atom_site_occupancy
  Sb  Sb0  1  -0.26518093  -0.74105169  -0.57677824  1.0
  Sb  Sb1  1  -0.73481907  -0.25894831  -0.42322176  1.0
  S  S2  1  -0.84408769  -0.23405550  -0.63739877  1.0
  S  S3  1  -0.15591231  -0.76594450  -0.36260123  1.0
