# generated using pymatgen
data_Na3InF6
_symmetry_space_group_name_H-M   'P 1'
_cell_length_a   5.75251371
_cell_length_b   5.95023120
_cell_length_c   10.08564117
_cell_angle_alpha   90.00000000
_cell_angle_beta   123.73664361
_cell_angle_gamma   90.00000000
_symmetry_Int_Tables_number   1
_chemical_formula_structural   Na3InF6
_chemical_formula_sum   'Na6 In2 F12'
_cell_volume   287.08402478
_cell_formula_units_Z   2
loop_
 _symmetry_equiv_pos_site_id
 _symmetry_equiv_pos_as_xyz
  1  'x, y, z'
loop_
 _atom_site_type_symbol
 _atom_site_label
 _atom_site_symmetry_multiplicity
 _atom_site_fract_x
 _atom_site_fract_y
 _atom_site_fract_z
 _atom_site_occupancy
  Na  Na0  1  0.72153872  0.05157633  0.23469977  1.0
  Na  Na1  1  0.72153872  0.44842367  0.73469977  1.0
  Na  Na2  1  0.27846128  0.55157633  0.26530023  1.0
  Na  Na3  1  0.27846128  0.94842367  0.76530023  1.0
  Na  Na4  1  0.50000000  0.50000000  0.00000000  1.0
  Na  Na5  1  0.50000000  0.00000000  0.50000000  1.0
  In  In6  1  -0.00000000  0.50000000  0.50000000  1.0
  In  In7  1  0.00000000  0.00000000  0.00000000  1.0
  F  F8  1  0.89662599  0.42169926  0.26836196  1.0
  F  F9  1  0.89662599  0.07830074  0.76836196  1.0
  F  F10  1  0.10337401  0.92169926  0.23163804  1.0
  F  F11  1  0.10337401  0.57830074  0.73163804  1.0
  F  F12  1  0.74153001  0.78905643  0.41445647  1.0
  F  F13  1  0.74153001  0.71094357  0.91445647  1.0
  F  F14  1  0.25846999  0.28905643  0.08554353  1.0
  F  F15  1  0.25846999  0.21094357  0.58554353  1.0
  F  F16  1  0.64466689  0.32199041  0.44960406  1.0
  F  F17  1  0.64466689  0.17800959  0.94960406  1.0
  F  F18  1  0.35533311  0.82199041  0.05039594  1.0
  F  F19  1  0.35533311  0.67800959  0.55039594  1.0
