# generated using pymatgen
data_SrLiAl3N4
_symmetry_space_group_name_H-M   'P 1'
_cell_length_a   5.90653290
_cell_length_b   5.83403330
_cell_length_c   6.62359980
_cell_angle_alpha   73.27756915
_cell_angle_beta   73.81390439
_cell_angle_gamma   84.85901763
_symmetry_Int_Tables_number   1
_chemical_formula_structural   SrLiAl3N4
_chemical_formula_sum   'Sr2 Li2 Al6 N8'
_cell_volume   209.91409804
_cell_formula_units_Z   2
loop_
 _symmetry_equiv_pos_site_id
 _symmetry_equiv_pos_as_xyz
  1  'x, y, z'
loop_
 _atom_site_type_symbol
 _atom_site_label
 _atom_site_symmetry_multiplicity
 _atom_site_fract_x
 _atom_site_fract_y
 _atom_site_fract_z
 _atom_site_occupancy
  Sr  Sr0  1  -0.49108069  -0.01709732  -0.73276252  1.0
  Sr  Sr1  1  -0.50891931  -0.98290268  -0.26723748  1.0
  Li  Li2  1  -0.67870284  -0.45409895  -0.34600528  1.0
  Li  Li3  1  -0.32129716  -0.54590105  -0.65399473  1.0
  Al  Al4  1  -0.05510417  -0.18012229  -0.07282034  1.0
  Al  Al5  1  -0.94489583  -0.81987771  -0.92717966  1.0
  Al  Al6  1  -0.03989266  -0.19295174  -0.55816508  1.0
  Al  Al7  1  -0.96010734  -0.80704826  -0.44183492  1.0
  Al  Al8  1  -0.66895231  -0.45772013  -0.83941193  1.0
  Al  Al9  1  -0.33104769  -0.54227987  -0.16058807  1.0
  N  N10  1  -0.87278565  -0.14999303  -0.36173336  1.0
  N  N11  1  -0.12721435  -0.85000697  -0.63826664  1.0
  N  N12  1  -0.87285729  -0.17832683  -0.86890460  1.0
  N  N13  1  -0.12714271  -0.82167317  -0.13109540  1.0
  N  N14  1  -0.34145482  -0.34436808  -0.97184367  1.0
  N  N15  1  -0.65854518  -0.65563192  -0.02815633  1.0
  N  N16  1  -0.31301511  -0.36334263  -0.44218982  1.0
  N  N17  1  -0.68698489  -0.63665737  -0.55781018  1.0
