# generated using pymatgen
data_YCo4(CuO4)3
_symmetry_space_group_name_H-M   'P 1'
_cell_length_a   6.20175938
_cell_length_b   6.20175938
_cell_length_c   6.20175938
_cell_angle_alpha   109.47122063
_cell_angle_beta   109.47122063
_cell_angle_gamma   109.47122063
_symmetry_Int_Tables_number   1
_chemical_formula_structural   YCo4(CuO4)3
_chemical_formula_sum   'Y1 Co4 Cu3 O12'
_cell_volume   183.62121011
_cell_formula_units_Z   1
loop_
 _symmetry_equiv_pos_site_id
 _symmetry_equiv_pos_as_xyz
  1  'x, y, z'
loop_
 _atom_site_type_symbol
 _atom_site_label
 _atom_site_symmetry_multiplicity
 _atom_site_fract_x
 _atom_site_fract_y
 _atom_site_fract_z
 _atom_site_occupancy
  Y  Y0  1  0.00000000  0.00000000  0.00000000  1.0
  Co  Co1  1  0.50000000  1.00000000  1.00000000  1.0
  Co  Co2  1  0.50000000  0.50000000  0.50000000  1.0
  Co  Co3  1  1.00000000  1.00000000  0.50000000  1.0
  Co  Co4  1  1.00000000  0.50000000  1.00000000  1.0
  Cu  Cu5  1  0.50000000  0.50000000  -0.00000000  1.0
  Cu  Cu6  1  0.00000000  0.50000000  0.50000000  1.0
  Cu  Cu7  1  0.50000000  0.00000000  0.50000000  1.0
  O  O8  1  0.82748469  1.30035002  1.12783470  1.0
  O  O9  1  0.82748469  0.69964998  0.52713467  1.0
  O  O10  1  0.17251531  0.30035002  0.47286533  1.0
  O  O11  1  0.17251531  0.69964998  0.87216530  1.0
  O  O12  1  0.52713467  0.82748469  0.69964998  1.0
  O  O13  1  1.12783470  0.82748469  1.30035002  1.0
  O  O14  1  0.69964998  0.87216530  0.17251531  1.0
  O  O15  1  0.69964998  0.52713467  0.82748469  1.0
  O  O16  1  0.87216530  0.17251531  0.69964998  1.0
  O  O17  1  0.47286533  0.17251531  0.30035002  1.0
  O  O18  1  0.30035002  0.47286533  0.17251531  1.0
  O  O19  1  1.30035002  1.12783470  0.82748469  1.0
