# generated using pymatgen
data_Rb3(SeO4)2
_symmetry_space_group_name_H-M   'P 1'
_cell_length_a   8.48707385
_cell_length_b   8.48707385
_cell_length_c   10.61344207
_cell_angle_alpha   77.00982907
_cell_angle_beta   102.99017093
_cell_angle_gamma   136.23245481
_symmetry_Int_Tables_number   1
_chemical_formula_structural   Rb3(SeO4)2
_chemical_formula_sum   'Rb6 Se4 O16'
_cell_volume   513.07418385
_cell_formula_units_Z   2
loop_
 _symmetry_equiv_pos_site_id
 _symmetry_equiv_pos_as_xyz
  1  'x, y, z'
loop_
 _atom_site_type_symbol
 _atom_site_label
 _atom_site_symmetry_multiplicity
 _atom_site_fract_x
 _atom_site_fract_y
 _atom_site_fract_z
 _atom_site_occupancy
  O  O0  1  0.58256814  -0.11185931  0.87288920  1.0
  O  O1  1  1.11185931  0.41743186  0.37288920  1.0
  O  O2  1  0.88814069  0.58256814  0.62711080  1.0
  O  O3  1  0.41743186  0.11185931  0.12711080  1.0
  O  O4  1  0.65375883  0.33934465  0.91017747  1.0
  O  O5  1  0.66065535  0.34624117  0.41017747  1.0
  O  O6  1  1.33934465  0.65375883  0.58982253  1.0
  O  O7  1  0.34624117  -0.33934465  0.08982253  1.0
  O  O8  1  0.34029022  0.33645181  0.94091227  1.0
  O  O9  1  0.66354819  0.65970978  0.44091227  1.0
  O  O10  1  1.33645181  0.34029022  0.55908773  1.0
  O  O11  1  0.65970978  -0.33645181  0.05908773  1.0
  O  O12  1  0.18960538  -0.05010888  0.88831522  1.0
  O  O13  1  1.05010888  0.81039462  0.38831522  1.0
  O  O14  1  0.94989112  0.18960538  0.61168478  1.0
  O  O15  1  0.81039462  0.05010888  0.11168478  1.0
  Rb  Rb16  1  0.39905321  0.02530900  0.65206200  1.0
  Rb  Rb17  1  0.97469100  0.60094679  0.15206200  1.0
  Rb  Rb18  1  1.02530900  0.39905321  0.84793800  1.0
  Rb  Rb19  1  0.60094679  -0.02530900  0.34793800  1.0
  Rb  Rb20  1  0.73754109  0.73754109  0.75000000  1.0
  Rb  Rb21  1  0.26245891  0.26245891  0.25000000  1.0
  Se  Se22  1  0.40477234  0.17988297  0.96811971  1.0
  Se  Se23  1  0.82011703  0.59522766  0.46811971  1.0
  Se  Se24  1  1.17988297  0.40477234  0.53188029  1.0
  Se  Se25  1  0.59522766  -0.17988297  0.03188029  1.0
