# generated using pymatgen
data_SiO2
_symmetry_space_group_name_H-M   'P 1'
_cell_length_a   6.85971908
_cell_length_b   6.85971908
_cell_length_c   4.64274039
_cell_angle_alpha   79.65947063
_cell_angle_beta   100.34052937
_cell_angle_gamma   136.68823122
_symmetry_Int_Tables_number   1
_chemical_formula_structural   SiO2
_chemical_formula_sum   'Si6 O12'
_cell_volume   147.04033737
_cell_formula_units_Z   6
loop_
 _symmetry_equiv_pos_site_id
 _symmetry_equiv_pos_as_xyz
  1  'x, y, z'
loop_
 _atom_site_type_symbol
 _atom_site_label
 _atom_site_symmetry_multiplicity
 _atom_site_fract_x
 _atom_site_fract_y
 _atom_site_fract_z
 _atom_site_occupancy
  Si  Si0  1  1.01862148  -0.30821454  0.33008726  1.0
  Si  Si1  1  1.69178546  0.01862148  0.16991274  1.0
  Si  Si2  1  0.98137852  -0.69178546  0.66991274  1.0
  Si  Si3  1  1.30821454  -0.01862148  0.83008726  1.0
  Si  Si4  1  0.64224307  0.64224307  0.75000000  1.0
  Si  Si5  1  0.35775693  0.35775693  0.25000000  1.0
  O  O6  1  1.21804700  0.03645615  0.46082694  1.0
  O  O7  1  1.03645615  -0.78195300  0.03917306  1.0
  O  O8  1  1.78195300  -0.03645615  0.53917306  1.0
  O  O9  1  0.96354385  -0.21804700  0.96082694  1.0
  O  O10  1  1.45206857  0.30283486  0.96146445  1.0
  O  O11  1  1.30283486  -0.54793143  0.53853555  1.0
  O  O12  1  1.54793143  -0.30283486  0.03853555  1.0
  O  O13  1  0.69716514  -0.45206857  0.46146445  1.0
  O  O14  1  1.34389753  -0.13904059  0.18129073  1.0
  O  O15  1  0.86095941  -0.65610247  0.31870927  1.0
  O  O16  1  1.65610247  0.13904059  0.81870927  1.0
  O  O17  1  1.13904059  -0.34389753  0.68129073  1.0
