# generated using pymatgen
data_RbRe3Br10
_symmetry_space_group_name_H-M   'P 1'
_cell_length_a   9.45647762
_cell_length_b   9.45647762
_cell_length_c   11.05360596
_cell_angle_alpha   86.82569372
_cell_angle_beta   93.17430628
_cell_angle_gamma   109.39374587
_symmetry_Int_Tables_number   1
_chemical_formula_structural   RbRe3Br10
_chemical_formula_sum   'Rb2 Re6 Br20'
_cell_volume   930.23288058
_cell_formula_units_Z   2
loop_
 _symmetry_equiv_pos_site_id
 _symmetry_equiv_pos_as_xyz
  1  'x, y, z'
loop_
 _atom_site_type_symbol
 _atom_site_label
 _atom_site_symmetry_multiplicity
 _atom_site_fract_x
 _atom_site_fract_y
 _atom_site_fract_z
 _atom_site_occupancy
  Rb  Rb0  1  0.71568516  -0.28431484  0.00000000  1.0
  Rb  Rb1  1  1.28431484  0.28431484  0.00000000  1.0
  Re  Re2  1  1.68751825  0.08871306  0.62437120  1.0
  Re  Re3  1  0.91128694  -0.68751825  0.62437120  1.0
  Re  Re4  1  1.08871306  0.68751825  0.37562880  1.0
  Re  Re5  1  0.31248175  -0.08871306  0.37562880  1.0
  Re  Re6  1  0.73911274  -0.73911274  0.79380798  1.0
  Re  Re7  1  0.26088726  -0.26088726  0.20619202  1.0
  Br  Br8  1  0.78913220  -0.10726683  0.70208270  1.0
  Br  Br9  1  1.10726683  0.21086780  0.70208270  1.0
  Br  Br10  1  0.89273317  -0.21086780  0.29791730  1.0
  Br  Br11  1  1.21086780  0.10726683  0.29791730  1.0
  Br  Br12  1  0.49665667  -0.17605432  0.50638075  1.0
  Br  Br13  1  1.17605432  0.50334333  0.50638075  1.0
  Br  Br14  1  0.82394568  -0.50334333  0.49361925  1.0
  Br  Br15  1  1.50334333  0.17605432  0.49361925  1.0
  Br  Br16  1  1.50457232  0.02505667  0.79845060  1.0
  Br  Br17  1  0.97494333  -0.50457232  0.79845060  1.0
  Br  Br18  1  1.02505667  0.50457232  0.20154940  1.0
  Br  Br19  1  0.49542768  -0.02505667  0.20154940  1.0
  Br  Br20  1  0.86832972  -0.86832972  0.94267904  1.0
  Br  Br21  1  0.13167028  -0.13167028  0.05732096  1.0
  Br  Br22  1  0.86013682  -0.86013682  0.44445010  1.0
  Br  Br23  1  0.13986318  -0.13986318  0.55554990  1.0
  Br  Br24  1  0.58275300  -0.58275300  0.72322903  1.0
  Br  Br25  1  0.41724700  -0.41724700  0.27677097  1.0
  Br  Br26  1  0.33839206  -0.33839206  0.98793524  1.0
  Br  Br27  1  0.66160794  -0.66160794  0.01206476  1.0
