# generated using pymatgen
data_Ta11(CoSe4)2
_symmetry_space_group_name_H-M   'P 1'
_cell_length_a   12.16481422
_cell_length_b   19.55737201
_cell_length_c   3.42879633
_cell_angle_alpha   90.00000000
_cell_angle_beta   90.00000000
_cell_angle_gamma   90.00000000
_symmetry_Int_Tables_number   1
_chemical_formula_structural   Ta11(CoSe4)2
_chemical_formula_sum   'Ta22 Co4 Se16'
_cell_volume   815.75109744
_cell_formula_units_Z   2
loop_
 _symmetry_equiv_pos_site_id
 _symmetry_equiv_pos_as_xyz
  1  'x, y, z'
loop_
 _atom_site_type_symbol
 _atom_site_label
 _atom_site_symmetry_multiplicity
 _atom_site_fract_x
 _atom_site_fract_y
 _atom_site_fract_z
 _atom_site_occupancy
  Ta  Ta0  1  0.44373904  0.75747603  0.50000000  1.0
  Ta  Ta1  1  0.94373904  0.74252397  -0.00000000  1.0
  Ta  Ta2  1  0.55626096  0.24252397  0.50000000  1.0
  Ta  Ta3  1  0.05626096  0.25747603  -0.00000000  1.0
  Ta  Ta4  1  0.17884914  0.55297102  0.50000000  1.0
  Ta  Ta5  1  0.67884914  0.94702898  -0.00000000  1.0
  Ta  Ta6  1  0.82115086  0.44702898  0.50000000  1.0
  Ta  Ta7  1  0.32115086  0.05297102  -0.00000000  1.0
  Ta  Ta8  1  0.17540037  0.14649113  0.50000000  1.0
  Ta  Ta9  1  0.67540037  0.35350887  -0.00000000  1.0
  Ta  Ta10  1  0.82459963  0.85350887  0.50000000  1.0
  Ta  Ta11  1  0.32459963  0.64649113  -0.00000000  1.0
  Ta  Ta12  1  0.15047153  0.71185259  0.50000000  1.0
  Ta  Ta13  1  0.65047153  0.78814741  -0.00000000  1.0
  Ta  Ta14  1  0.84952847  0.28814741  0.50000000  1.0
  Ta  Ta15  1  0.34952847  0.21185259  -0.00000000  1.0
  Ta  Ta16  1  0.93721018  0.61588291  0.50000000  1.0
  Ta  Ta17  1  0.43721018  0.88411709  0.00000000  1.0
  Ta  Ta18  1  0.06278982  0.38411709  0.50000000  1.0
  Ta  Ta19  1  0.56278982  0.11588291  0.00000000  1.0
  Ta  Ta20  1  0.50000000  0.00000000  0.50000000  1.0
  Ta  Ta21  1  0.00000000  0.50000000  0.00000000  1.0
  Co  Co22  1  0.40752305  0.12832500  0.50000000  1.0
  Co  Co23  1  0.90752305  0.37167500  0.00000000  1.0
  Co  Co24  1  0.59247695  0.87167500  0.50000000  1.0
  Co  Co25  1  0.09247695  0.62832500  0.00000000  1.0
  Se  Se26  1  0.38935039  0.55379671  0.50000000  1.0
  Se  Se27  1  0.88935039  0.94620329  0.00000000  1.0
  Se  Se28  1  0.61064961  0.44620329  0.50000000  1.0
  Se  Se29  1  0.11064961  0.05379671  0.00000000  1.0
  Se  Se30  1  0.29399904  0.94486802  0.50000000  1.0
  Se  Se31  1  0.79399904  0.55513198  -0.00000000  1.0
  Se  Se32  1  0.70600096  0.05513198  0.50000000  1.0
  Se  Se33  1  0.20600096  0.44486802  -0.00000000  1.0
  Se  Se34  1  0.03879876  0.82587945  0.50000000  1.0
  Se  Se35  1  0.53879876  0.67412055  0.00000000  1.0
  Se  Se36  1  0.96120124  0.17412055  0.50000000  1.0
  Se  Se37  1  0.46120124  0.32587945  0.00000000  1.0
  Se  Se38  1  0.78135314  0.71423953  0.50000000  1.0
  Se  Se39  1  0.28135314  0.78576047  -0.00000000  1.0
  Se  Se40  1  0.21864686  0.28576047  0.50000000  1.0
  Se  Se41  1  0.71864686  0.21423953  -0.00000000  1.0
