# generated using pymatgen
data_BaTiO3
_symmetry_space_group_name_H-M   'P 1'
_cell_length_a   5.62846494
_cell_length_b   5.62846494
_cell_length_c   3.79534476
_cell_angle_alpha   90.00000000
_cell_angle_beta   90.00000000
_cell_angle_gamma   70.78150935
_symmetry_Int_Tables_number   1
_chemical_formula_structural   BaTiO3
_chemical_formula_sum   'Ba1 Ti1 O3'
_cell_volume   113.53439271
_cell_formula_units_Z   1
loop_
 _symmetry_equiv_pos_site_id
 _symmetry_equiv_pos_as_xyz
  1  'x, y, z'
loop_
 _atom_site_type_symbol
 _atom_site_label
 _atom_site_symmetry_multiplicity
 _atom_site_fract_x
 _atom_site_fract_y
 _atom_site_fract_z
 _atom_site_occupancy
  Ba  Ba0  1  -0.15409020  0.15409020  0.00000000  1.0
  Ti  Ti1  1  0.30515266  0.69484734  0.50000000  1.0
  O  O2  1  -0.41520092  1.41520092  0.50000000  1.0
  O  O3  1  -0.70820235  1.00765919  0.50000000  1.0
  O  O4  1  -0.00765919  1.70820235  0.50000000  1.0
