# generated using pymatgen
data_Mo6PbS8
_symmetry_space_group_name_H-M   'P 1'
_cell_length_a   6.60107044
_cell_length_b   6.60107044
_cell_length_c   6.60107044
_cell_angle_alpha   89.33678807
_cell_angle_beta   89.33678807
_cell_angle_gamma   89.33678807
_symmetry_Int_Tables_number   1
_chemical_formula_structural   Mo6PbS8
_chemical_formula_sum   'Mo6 Pb1 S8'
_cell_volume   287.57854216
_cell_formula_units_Z   1
loop_
 _symmetry_equiv_pos_site_id
 _symmetry_equiv_pos_as_xyz
  1  'x, y, z'
loop_
 _atom_site_type_symbol
 _atom_site_label
 _atom_site_symmetry_multiplicity
 _atom_site_fract_x
 _atom_site_fract_y
 _atom_site_fract_z
 _atom_site_occupancy
  Mo  Mo0  1  0.43781139  0.58382584  -0.22882779  1.0
  Mo  Mo1  1  0.41617416  0.22882779  -0.43781139  1.0
  Mo  Mo2  1  0.22882779  0.56218861  -0.58382584  1.0
  Mo  Mo3  1  0.56218861  0.41617416  -0.77117221  1.0
  Mo  Mo4  1  0.58382584  0.77117221  -0.56218861  1.0
  Mo  Mo5  1  0.77117221  0.43781139  -0.41617416  1.0
  Pb  Pb6  1  0.00000000  0.00000000  0.00000000  1.0
  S  S7  1  0.87395647  0.61547063  -0.73856556  1.0
  S  S8  1  0.38452937  0.73856556  -0.87395647  1.0
  S  S9  1  0.73856556  0.12604353  -0.61547063  1.0
  S  S10  1  0.12604353  0.38452937  -0.26143444  1.0
  S  S11  1  0.61547063  0.26143444  -0.12604353  1.0
  S  S12  1  0.26143444  0.87395647  -0.38452937  1.0
  S  S13  1  0.75527294  0.75527294  -0.24472706  1.0
  S  S14  1  1.24472706  1.24472706  0.24472706  1.0
