# generated using pymatgen
data_MnSeO3
_symmetry_space_group_name_H-M   'P 1'
_cell_length_a   5.28865521
_cell_length_b   8.65273595
_cell_length_c   13.84442798
_cell_angle_alpha   90.00000000
_cell_angle_beta   99.54971623
_cell_angle_gamma   90.00000000
_symmetry_Int_Tables_number   1
_chemical_formula_structural   MnSeO3
_chemical_formula_sum   'Mn8 Se8 O24'
_cell_volume   624.75995513
_cell_formula_units_Z   8
loop_
 _symmetry_equiv_pos_site_id
 _symmetry_equiv_pos_as_xyz
  1  'x, y, z'
loop_
 _atom_site_type_symbol
 _atom_site_label
 _atom_site_symmetry_multiplicity
 _atom_site_fract_x
 _atom_site_fract_y
 _atom_site_fract_z
 _atom_site_occupancy
  Mn  Mn0  1  0.95721136  0.75542478  0.74793388  1.0
  Mn  Mn1  1  0.95721136  0.74457522  0.24793388  1.0
  Mn  Mn2  1  0.04278864  0.25542478  0.75206612  1.0
  Mn  Mn3  1  0.04278864  0.24457522  0.25206612  1.0
  Mn  Mn4  1  0.56966430  0.57255988  0.89553475  1.0
  Mn  Mn5  1  0.56966430  0.92744012  0.39553475  1.0
  Mn  Mn6  1  0.43033570  0.07255988  0.60446525  1.0
  Mn  Mn7  1  0.43033570  0.42744012  0.10446525  1.0
  Se  Se8  1  0.86863904  0.22642959  0.99694341  1.0
  Se  Se9  1  0.86863904  0.27357041  0.49694341  1.0
  Se  Se10  1  0.13136096  0.72642959  0.50305659  1.0
  Se  Se11  1  0.13136096  0.77357041  0.00305659  1.0
  Se  Se12  1  0.48778081  0.95160307  0.81674458  1.0
  Se  Se13  1  0.48778081  0.54839693  0.31674458  1.0
  Se  Se14  1  0.51221919  0.45160307  0.68325542  1.0
  Se  Se15  1  0.51221919  0.04839693  0.18325542  1.0
  O  O16  1  0.99424389  0.74152754  0.60476456  1.0
  O  O17  1  0.99424389  0.75847246  0.10476456  1.0
  O  O18  1  0.00575611  0.24152754  0.89523544  1.0
  O  O19  1  0.00575611  0.25847246  0.39523544  1.0
  O  O20  1  0.87123484  0.74165540  0.90973169  1.0
  O  O21  1  0.87123484  0.75834460  0.40973169  1.0
  O  O22  1  0.12876516  0.24165540  0.59026831  1.0
  O  O23  1  0.12876516  0.25834460  0.09026831  1.0
  O  O24  1  0.75586954  0.54773501  0.75807400  1.0
  O  O25  1  0.75586954  0.95226499  0.25807400  1.0
  O  O26  1  0.24413046  0.04773501  0.74192600  1.0
  O  O27  1  0.24413046  0.45226499  0.24192600  1.0
  O  O28  1  0.68937703  0.39721821  0.99783101  1.0
  O  O29  1  0.68937703  0.10278179  0.49783101  1.0
  O  O30  1  0.31062297  0.89721821  0.50216899  1.0
  O  O31  1  0.31062297  0.60278179  0.00216899  1.0
  O  O32  1  0.67193726  0.92673463  0.72531643  1.0
  O  O33  1  0.67193726  0.57326537  0.22531643  1.0
  O  O34  1  0.32806274  0.42673463  0.77468357  1.0
  O  O35  1  0.32806274  0.07326537  0.27468357  1.0
  O  O36  1  0.33937541  0.77236133  0.82076985  1.0
  O  O37  1  0.33937541  0.72763867  0.32076985  1.0
  O  O38  1  0.66062459  0.27236133  0.67923015  1.0
  O  O39  1  0.66062459  0.22763867  0.17923015  1.0
