# generated using pymatgen
data_BaCr4S7
_symmetry_space_group_name_H-M   'P 1'
_cell_length_a   6.82492463
_cell_length_b   22.91409377
_cell_length_c   6.01046018
_cell_angle_alpha   90.00000000
_cell_angle_beta   90.00816540
_cell_angle_gamma   90.00000000
_symmetry_Int_Tables_number   1
_chemical_formula_structural   BaCr4S7
_chemical_formula_sum   'Ba4 Cr16 S28'
_cell_volume   939.95760324
_cell_formula_units_Z   4
loop_
 _symmetry_equiv_pos_site_id
 _symmetry_equiv_pos_as_xyz
  1  'x, y, z'
loop_
 _atom_site_type_symbol
 _atom_site_label
 _atom_site_symmetry_multiplicity
 _atom_site_fract_x
 _atom_site_fract_y
 _atom_site_fract_z
 _atom_site_occupancy
  Ba  Ba0  1  0.87251244  0.32793963  0.89296891  1.0
  Ba  Ba1  1  0.87251244  0.17206037  0.39296891  1.0
  Ba  Ba2  1  0.12748756  0.82793963  0.60703109  1.0
  Ba  Ba3  1  0.12748756  0.67206037  0.10703109  1.0
  Cr  Cr4  1  0.87507371  0.99912624  0.76495472  1.0
  Cr  Cr5  1  0.87507371  0.50087376  0.26495472  1.0
  Cr  Cr6  1  0.12492629  0.49912624  0.73504528  1.0
  Cr  Cr7  1  0.12492629  0.00087376  0.23504528  1.0
  Cr  Cr8  1  0.63065238  0.75388416  0.89133883  1.0
  Cr  Cr9  1  0.63065238  0.74611584  0.39133883  1.0
  Cr  Cr10  1  0.36934762  0.25388416  0.60866117  1.0
  Cr  Cr11  1  0.36934762  0.24611584  0.10866117  1.0
  Cr  Cr12  1  0.62998161  0.62549217  0.76047941  1.0
  Cr  Cr13  1  0.62998161  0.87450783  0.26047941  1.0
  Cr  Cr14  1  0.37001839  0.12549217  0.73952059  1.0
  Cr  Cr15  1  0.37001839  0.37450783  0.23952059  1.0
  Cr  Cr16  1  0.37591420  0.99218499  0.75437315  1.0
  Cr  Cr17  1  0.37591420  0.50781501  0.25437315  1.0
  Cr  Cr18  1  0.62408580  0.49218499  0.74562685  1.0
  Cr  Cr19  1  0.62408580  0.00781501  0.24562685  1.0
  S  S20  1  0.87864380  0.43987024  0.58112362  1.0
  S  S21  1  0.87864380  0.06012976  0.08112362  1.0
  S  S22  1  0.12135620  0.93987024  0.91887638  1.0
  S  S23  1  0.12135620  0.56012976  0.41887638  1.0
  S  S24  1  0.87160914  0.55536734  0.91534180  1.0
  S  S25  1  0.87160914  0.94463266  0.41534180  1.0
  S  S26  1  0.12839086  0.05536734  0.58465820  1.0
  S  S27  1  0.12839086  0.44463266  0.08465820  1.0
  S  S28  1  0.86128717  0.70083776  0.64486865  1.0
  S  S29  1  0.86128717  0.79916224  0.14486865  1.0
  S  S30  1  0.13871283  0.20083776  0.85513135  1.0
  S  S31  1  0.13871283  0.29916224  0.35513135  1.0
  S  S32  1  0.62841286  0.94057988  0.93849151  1.0
  S  S33  1  0.62841286  0.55942012  0.43849151  1.0
  S  S34  1  0.37158714  0.44057988  0.56150849  1.0
  S  S35  1  0.37158714  0.05942012  0.06150849  1.0
  S  S36  1  0.62975903  0.83045872  0.62033006  1.0
  S  S37  1  0.62975903  0.66954128  0.12033006  1.0
  S  S38  1  0.37024097  0.33045872  0.87966994  1.0
  S  S39  1  0.37024097  0.16954128  0.37966994  1.0
  S  S40  1  0.40131117  0.70106472  0.64439170  1.0
  S  S41  1  0.40131117  0.79893528  0.14439170  1.0
  S  S42  1  0.59868883  0.20106472  0.85560830  1.0
  S  S43  1  0.59868883  0.29893528  0.35560830  1.0
  S  S44  1  0.37779379  0.55895027  0.90525991  1.0
  S  S45  1  0.37779379  0.94104973  0.40525991  1.0
  S  S46  1  0.62220621  0.05895027  0.59474009  1.0
  S  S47  1  0.62220621  0.44104973  0.09474009  1.0
