# generated using pymatgen
data_H4C(NO)3
_symmetry_space_group_name_H-M   'P 1'
_cell_length_a   7.88647670
_cell_length_b   6.32954740
_cell_length_c   4.87199088
_cell_angle_alpha   105.57711671
_cell_angle_beta   96.58479127
_cell_angle_gamma   93.80407180
_symmetry_Int_Tables_number   1
_chemical_formula_structural   H4C(NO)3
_chemical_formula_sum   'H8 C2 N6 O6'
_cell_volume   231.51890079
_cell_formula_units_Z   2
loop_
 _symmetry_equiv_pos_site_id
 _symmetry_equiv_pos_as_xyz
  1  'x, y, z'
loop_
 _atom_site_type_symbol
 _atom_site_label
 _atom_site_symmetry_multiplicity
 _atom_site_fract_x
 _atom_site_fract_y
 _atom_site_fract_z
 _atom_site_occupancy
  H  H0  1  -0.59446775  -0.66643905  -0.08909448  1.0
  H  H1  1  -0.43948326  -0.85992981  -0.42613029  1.0
  H  H2  1  -0.83528068  -0.27512529  -0.54907775  1.0
  H  H3  1  -0.63179623  -0.96381358  -0.52895618  1.0
  H  H4  1  -0.56986473  -0.66635419  -0.73415168  1.0
  H  H5  1  -0.86713699  -0.15859243  -0.79769799  1.0
  H  H6  1  -0.65588869  -0.45255400  -0.83627673  1.0
  H  H7  1  -0.44734574  -0.48524119  -0.85214360  1.0
  C  C8  1  -0.16878821  -0.03209772  -0.12120323  1.0
  C  C9  1  -0.05551356  -0.78296389  -0.24914631  1.0
  N  N10  1  -0.00228901  -0.00865618  -0.00413465  1.0
  N  N11  1  -0.92766650  -0.84484875  -0.08828592  1.0
  N  N12  1  -0.29347929  -0.19220210  -0.07682932  1.0
  N  N13  1  -0.20986431  -0.89478480  -0.27820334  1.0
  N  N14  1  -0.02837730  -0.60728070  -0.38178930  1.0
  N  N15  1  -0.56751036  -0.56856517  -0.87689884  1.0
  O  O16  1  -0.44104385  -0.20946016  -0.20148863  1.0
  O  O17  1  -0.88252681  -0.50826922  -0.33678917  1.0
  O  O18  1  -0.55720254  -0.82202645  -0.47054556  1.0
  O  O19  1  -0.15228086  -0.56635436  -0.53111484  1.0
  O  O20  1  -0.77677554  -0.21137860  -0.67934324  1.0
  O  O21  1  -0.24321778  -0.30246235  -0.91299897  1.0
