# generated using pymatgen
data_AgAsPbS3
_symmetry_space_group_name_H-M   'P 1'
_cell_length_a   6.02740011
_cell_length_b   12.71682513
_cell_length_c   7.77240260
_cell_angle_alpha   90.00000000
_cell_angle_beta   86.96997256
_cell_angle_gamma   90.00000000
_symmetry_Int_Tables_number   1
_chemical_formula_structural   AgAsPbS3
_chemical_formula_sum   'Ag4 As4 Pb4 S12'
_cell_volume   594.91706659
_cell_formula_units_Z   4
loop_
 _symmetry_equiv_pos_site_id
 _symmetry_equiv_pos_as_xyz
  1  'x, y, z'
loop_
 _atom_site_type_symbol
 _atom_site_label
 _atom_site_symmetry_multiplicity
 _atom_site_fract_x
 _atom_site_fract_y
 _atom_site_fract_z
 _atom_site_occupancy
  Ag  Ag0  1  0.76240784  0.76365199  0.39246569  1.0
  Ag  Ag1  1  0.76240784  0.73634801  0.89246569  1.0
  Ag  Ag2  1  0.23759216  0.26365199  0.10753431  1.0
  Ag  Ag3  1  0.23759216  0.23634801  0.60753431  1.0
  As  As4  1  0.71566768  0.10381043  0.33013720  1.0
  As  As5  1  0.71566768  0.39618957  0.83013720  1.0
  As  As6  1  0.28433232  0.60381043  0.16986280  1.0
  As  As7  1  0.28433232  0.89618957  0.66986280  1.0
  Pb  Pb8  1  0.76631510  0.42553563  0.33779892  1.0
  Pb  Pb9  1  0.76631510  0.07446437  0.83779892  1.0
  Pb  Pb10  1  0.23368490  0.92553563  0.16220108  1.0
  Pb  Pb11  1  0.23368490  0.57446437  0.66220108  1.0
  S  S12  1  0.81325323  0.22591765  0.12254077  1.0
  S  S13  1  0.81325323  0.27408235  0.62254077  1.0
  S  S14  1  0.18674677  0.72591765  0.37745923  1.0
  S  S15  1  0.18674677  0.77408235  0.87745923  1.0
  S  S16  1  0.73692809  0.95292610  0.15919753  1.0
  S  S17  1  0.73692809  0.54707390  0.65919753  1.0
  S  S18  1  0.26307191  0.45292610  0.34080247  1.0
  S  S19  1  0.26307191  0.04707390  0.84080247  1.0
  S  S20  1  0.33895918  0.13319500  0.34023635  1.0
  S  S21  1  0.33895918  0.36680500  0.84023635  1.0
  S  S22  1  0.66104082  0.63319500  0.15976365  1.0
  S  S23  1  0.66104082  0.86680500  0.65976365  1.0
