# generated using pymatgen
data_Mg3Hg
_symmetry_space_group_name_H-M   'P 1'
_cell_length_a   10.10915451
_cell_length_b   10.10915451
_cell_length_c   10.10915451
_cell_angle_alpha   48.59472503
_cell_angle_beta   48.59472503
_cell_angle_gamma   48.59472503
_symmetry_Int_Tables_number   1
_chemical_formula_structural   Mg3Hg
_chemical_formula_sum   'Mg18 Hg6'
_cell_volume   533.16087020
_cell_formula_units_Z   6
loop_
 _symmetry_equiv_pos_site_id
 _symmetry_equiv_pos_as_xyz
  1  'x, y, z'
loop_
 _atom_site_type_symbol
 _atom_site_label
 _atom_site_symmetry_multiplicity
 _atom_site_fract_x
 _atom_site_fract_y
 _atom_site_fract_z
 _atom_site_occupancy
  Mg  Mg0  1  1.63417467  0.63417467  0.63417467  1.0
  Mg  Mg1  1  1.36582533  0.36582533  0.36582533  1.0
  Mg  Mg2  1  0.83051311  1.25395032  0.58385188  1.0
  Mg  Mg3  1  1.41614812  0.74604968  0.16948689  1.0
  Mg  Mg4  1  0.74604968  1.16948689  0.41614812  1.0
  Mg  Mg5  1  1.16948689  1.41614812  -0.25395032  1.0
  Mg  Mg6  1  1.58385188  0.83051311  0.25395032  1.0
  Mg  Mg7  1  1.25395032  0.58385188  0.83051311  1.0
  Mg  Mg8  1  1.52905535  0.27084263  1.02686149  1.0
  Mg  Mg9  1  0.97313851  0.72915737  0.47094465  1.0
  Mg  Mg10  1  0.72915737  1.47094465  -0.02686149  1.0
  Mg  Mg11  1  1.47094465  0.97313851  -0.27084263  1.0
  Mg  Mg12  1  1.02686149  1.52905535  0.27084263  1.0
  Mg  Mg13  1  1.27084263  1.02686149  0.52905535  1.0
  Mg  Mg14  1  0.94360148  0.94360148  0.94360148  1.0
  Mg  Mg15  1  1.05639852  1.05639852  0.05639852  1.0
  Mg  Mg16  1  0.82046031  0.82046031  0.82046031  1.0
  Mg  Mg17  1  1.17953969  1.17953969  0.17953969  1.0
  Hg  Hg18  1  1.82703736  0.50000000  0.17296264  1.0
  Hg  Hg19  1  1.50000000  0.17296264  0.82703736  1.0
  Hg  Hg20  1  1.17296264  0.82703736  0.50000000  1.0
  Hg  Hg21  1  0.68118537  0.00000000  -0.68118537  1.0
  Hg  Hg22  1  -0.00000000  0.31881463  -0.31881463  1.0
  Hg  Hg23  1  0.31881463  -0.31881463  0.00000000  1.0
