# generated using pymatgen
data_CeMg5Ru2
_symmetry_space_group_name_H-M   'P 1'
_cell_length_a   9.63577338
_cell_length_b   9.63577338
_cell_length_c   7.28215369
_cell_angle_alpha   90.00000000
_cell_angle_beta   90.00000000
_cell_angle_gamma   90.00000000
_symmetry_Int_Tables_number   1
_chemical_formula_structural   CeMg5Ru2
_chemical_formula_sum   'Ce4 Mg20 Ru8'
_cell_volume   676.13434268
_cell_formula_units_Z   4
loop_
 _symmetry_equiv_pos_site_id
 _symmetry_equiv_pos_as_xyz
  1  'x, y, z'
loop_
 _atom_site_type_symbol
 _atom_site_label
 _atom_site_symmetry_multiplicity
 _atom_site_fract_x
 _atom_site_fract_y
 _atom_site_fract_z
 _atom_site_occupancy
  Ce  Ce0  1  0.00000000  0.50000000  0.32705465  1.0
  Ce  Ce1  1  0.00000000  0.50000000  0.82705465  1.0
  Ce  Ce2  1  0.50000000  0.00000000  0.17294535  1.0
  Ce  Ce3  1  0.50000000  0.00000000  0.67294535  1.0
  Mg  Mg4  1  0.75000000  0.25000000  0.75000000  1.0
  Mg  Mg5  1  0.75000000  0.75000000  0.25000000  1.0
  Mg  Mg6  1  0.25000000  0.25000000  0.25000000  1.0
  Mg  Mg7  1  0.25000000  0.75000000  0.75000000  1.0
  Mg  Mg8  1  0.30054561  0.45242351  0.59915293  1.0
  Mg  Mg9  1  0.30054561  0.54757649  0.09915293  1.0
  Mg  Mg10  1  0.69945439  0.45242351  0.09915293  1.0
  Mg  Mg11  1  0.69945439  0.54757649  0.59915293  1.0
  Mg  Mg12  1  0.95242351  0.80054561  0.59915293  1.0
  Mg  Mg13  1  0.04757649  0.80054561  0.09915293  1.0
  Mg  Mg14  1  0.95242351  0.19945439  0.09915293  1.0
  Mg  Mg15  1  0.04757649  0.19945439  0.59915293  1.0
  Mg  Mg16  1  0.19945439  0.04757649  0.90084707  1.0
  Mg  Mg17  1  0.19945439  0.95242351  0.40084707  1.0
  Mg  Mg18  1  0.80054561  0.04757649  0.40084707  1.0
  Mg  Mg19  1  0.80054561  0.95242351  0.90084707  1.0
  Mg  Mg20  1  0.54757649  0.69945439  0.90084707  1.0
  Mg  Mg21  1  0.45242351  0.69945439  0.40084707  1.0
  Mg  Mg22  1  0.54757649  0.30054561  0.40084707  1.0
  Mg  Mg23  1  0.45242351  0.30054561  0.90084707  1.0
  Ru  Ru24  1  0.83658176  0.33658176  0.40774953  1.0
  Ru  Ru25  1  0.83658176  0.66341824  0.90774953  1.0
  Ru  Ru26  1  0.16341824  0.33658176  0.90774953  1.0
  Ru  Ru27  1  0.16341824  0.66341824  0.40774953  1.0
  Ru  Ru28  1  0.66341824  0.16341824  0.09225047  1.0
  Ru  Ru29  1  0.66341824  0.83658176  0.59225047  1.0
  Ru  Ru30  1  0.33658176  0.16341824  0.59225047  1.0
  Ru  Ru31  1  0.33658176  0.83658176  0.09225047  1.0
