# generated using pymatgen
data_Ti3Ni3O
_symmetry_space_group_name_H-M   'P 1'
_cell_length_a   7.80863916
_cell_length_b   7.80863916
_cell_length_c   7.80863916
_cell_angle_alpha   60.00000000
_cell_angle_beta   60.00000000
_cell_angle_gamma   60.00000000
_symmetry_Int_Tables_number   1
_chemical_formula_structural   Ti3Ni3O
_chemical_formula_sum   'Ti12 Ni12 O4'
_cell_volume   336.67515253
_cell_formula_units_Z   4
loop_
 _symmetry_equiv_pos_site_id
 _symmetry_equiv_pos_as_xyz
  1  'x, y, z'
loop_
 _atom_site_type_symbol
 _atom_site_label
 _atom_site_symmetry_multiplicity
 _atom_site_fract_x
 _atom_site_fract_y
 _atom_site_fract_z
 _atom_site_occupancy
  Ti  Ti0  1  0.55572035  0.55572035  0.94427965  1.0
  Ti  Ti1  1  0.94427965  0.55572035  0.94427965  1.0
  Ti  Ti2  1  0.55572035  0.94427965  0.94427965  1.0
  Ti  Ti3  1  0.94427965  0.94427965  0.55572035  1.0
  Ti  Ti4  1  0.55572035  0.94427965  0.55572035  1.0
  Ti  Ti5  1  0.94427965  0.55572035  0.55572035  1.0
  Ti  Ti6  1  0.69427965  0.69427965  -0.69427965  1.0
  Ti  Ti7  1  1.30572035  -0.30572035  0.30572035  1.0
  Ti  Ti8  1  -0.30572035  0.30572035  0.30572035  1.0
  Ti  Ti9  1  0.30572035  0.30572035  -0.30572035  1.0
  Ti  Ti10  1  0.69427965  -0.69427965  0.69427965  1.0
  Ti  Ti11  1  -0.69427965  0.69427965  0.69427965  1.0
  Ni  Ni12  1  0.12500000  0.12500000  1.62500000  1.0
  Ni  Ni13  1  0.12500000  0.62500000  1.12500000  1.0
  Ni  Ni14  1  1.62500000  0.12500000  0.12500000  1.0
  Ni  Ni15  1  1.12500000  0.12500000  0.12500000  1.0
  Ni  Ni16  1  0.91447066  -0.08552934  0.25658802  1.0
  Ni  Ni17  1  0.91447066  -0.74341198  0.91447066  1.0
  Ni  Ni18  1  0.25658802  0.91447066  0.91447066  1.0
  Ni  Ni19  1  0.91447066  0.91447066  0.91447066  1.0
  Ni  Ni20  1  1.33552934  0.33552934  -0.00658802  1.0
  Ni  Ni21  1  1.33552934  -0.00658802  0.33552934  1.0
  Ni  Ni22  1  0.99341198  0.33552934  0.33552934  1.0
  Ni  Ni23  1  1.33552934  0.33552934  0.33552934  1.0
  O  O24  1  0.62500000  0.62500000  1.12500000  1.0
  O  O25  1  0.62500000  1.12500000  0.62500000  1.0
  O  O26  1  1.12500000  0.62500000  0.62500000  1.0
  O  O27  1  0.62500000  0.62500000  0.62500000  1.0
