# generated using pymatgen
data_Eu2Si2O7
_symmetry_space_group_name_H-M   'P 1'
_cell_length_a   6.69960487
_cell_length_b   6.82635898
_cell_length_c   12.97899795
_cell_angle_alpha   90.00000000
_cell_angle_beta   109.06248101
_cell_angle_gamma   90.00000000
_symmetry_Int_Tables_number   1
_chemical_formula_structural   Eu2Si2O7
_chemical_formula_sum   'Eu8 Si8 O28'
_cell_volume   561.03012287
_cell_formula_units_Z   4
loop_
 _symmetry_equiv_pos_site_id
 _symmetry_equiv_pos_as_xyz
  1  'x, y, z'
loop_
 _atom_site_type_symbol
 _atom_site_label
 _atom_site_symmetry_multiplicity
 _atom_site_fract_x
 _atom_site_fract_y
 _atom_site_fract_z
 _atom_site_occupancy
  Eu  Eu0  1  0.83608041  0.83843951  0.14947198  1.0
  Eu  Eu1  1  0.83608041  0.66156049  0.64947198  1.0
  Eu  Eu2  1  0.16391959  0.33843951  0.35052802  1.0
  Eu  Eu3  1  0.16391959  0.16156049  0.85052802  1.0
  Eu  Eu4  1  0.47120851  0.38985871  0.13749310  1.0
  Eu  Eu5  1  0.47120851  0.11014129  0.63749310  1.0
  Eu  Eu6  1  0.52879149  0.88985871  0.36250690  1.0
  Eu  Eu7  1  0.52879149  0.61014129  0.86250690  1.0
  Si  Si8  1  0.89660094  0.33328285  0.08638794  1.0
  Si  Si9  1  0.89660094  0.16671715  0.58638794  1.0
  Si  Si10  1  0.10339906  0.83328285  0.41361206  1.0
  Si  Si11  1  0.10339906  0.66671715  0.91361206  1.0
  Si  Si12  1  0.71375495  0.41184742  0.39056084  1.0
  Si  Si13  1  0.71375495  0.08815258  0.89056084  1.0
  Si  Si14  1  0.28624505  0.91184742  0.10943916  1.0
  Si  Si15  1  0.28624505  0.58815258  0.60943916  1.0
  O  O16  1  0.90679145  0.27425340  0.47252291  1.0
  O  O17  1  0.90679145  0.22574660  0.97252291  1.0
  O  O18  1  0.09320855  0.77425340  0.02747709  1.0
  O  O19  1  0.09320855  0.72574660  0.52747709  1.0
  O  O20  1  0.87093280  0.90476273  0.33748945  1.0
  O  O21  1  0.87093280  0.59523727  0.83748945  1.0
  O  O22  1  0.12906720  0.40476273  0.16251055  1.0
  O  O23  1  0.12906720  0.09523727  0.66251055  1.0
  O  O24  1  0.78558211  0.17703013  0.14677840  1.0
  O  O25  1  0.78558211  0.32296987  0.64677840  1.0
  O  O26  1  0.21441789  0.67703013  0.35322160  1.0
  O  O27  1  0.21441789  0.82296987  0.85322160  1.0
  O  O28  1  0.80370622  0.47581775  0.29259612  1.0
  O  O29  1  0.80370622  0.02418225  0.79259612  1.0
  O  O30  1  0.19629378  0.97581775  0.20740388  1.0
  O  O31  1  0.19629378  0.52418225  0.70740388  1.0
  O  O32  1  0.66180812  0.90183590  0.95575938  1.0
  O  O33  1  0.66180812  0.59816410  0.45575938  1.0
  O  O34  1  0.33819188  0.40183590  0.54424062  1.0
  O  O35  1  0.33819188  0.09816410  0.04424062  1.0
  O  O36  1  0.50538120  0.27225497  0.33306948  1.0
  O  O37  1  0.50538120  0.22774503  0.83306948  1.0
  O  O38  1  0.49461880  0.77225497  0.16693052  1.0
  O  O39  1  0.49461880  0.72774503  0.66693052  1.0
  O  O40  1  0.27252019  0.01810686  0.44850057  1.0
  O  O41  1  0.27252019  0.48189314  0.94850057  1.0
  O  O42  1  0.72747981  0.51810686  0.05149943  1.0
  O  O43  1  0.72747981  0.98189314  0.55149943  1.0
