# generated using pymatgen
data_CrRe2(NiMo2)4
_symmetry_space_group_name_H-M   'P 1'
_cell_length_a   9.29496971
_cell_length_b   9.29496971
_cell_length_c   4.85677723
_cell_angle_alpha   90.00000000
_cell_angle_beta   90.00000000
_cell_angle_gamma   90.00000000
_symmetry_Int_Tables_number   1
_chemical_formula_structural   CrRe2(NiMo2)4
_chemical_formula_sum   'Cr2 Re4 Ni8 Mo16'
_cell_volume   419.60836849
_cell_formula_units_Z   2
loop_
 _symmetry_equiv_pos_site_id
 _symmetry_equiv_pos_as_xyz
  1  'x, y, z'
loop_
 _atom_site_type_symbol
 _atom_site_label
 _atom_site_symmetry_multiplicity
 _atom_site_fract_x
 _atom_site_fract_y
 _atom_site_fract_z
 _atom_site_occupancy
  Cr  Cr0  1  0.50000000  0.50000000  0.50000000  1.0
  Cr  Cr1  1  0.00000000  0.00000000  0.00000000  1.0
  Re  Re2  1  0.10238914  0.89761086  0.50000000  1.0
  Re  Re3  1  0.89761086  0.10238914  0.50000000  1.0
  Re  Re4  1  0.39761086  0.39761086  0.00000000  1.0
  Re  Re5  1  0.60238914  0.60238914  0.00000000  1.0
  Ni  Ni6  1  0.43055924  0.24620514  0.50000000  1.0
  Ni  Ni7  1  0.56944076  0.75379486  0.50000000  1.0
  Ni  Ni8  1  0.06944076  0.74620514  0.00000000  1.0
  Ni  Ni9  1  0.93055924  0.25379486  0.00000000  1.0
  Ni  Ni10  1  0.24620514  0.43055924  0.50000000  1.0
  Ni  Ni11  1  0.75379486  0.56944076  0.50000000  1.0
  Ni  Ni12  1  0.74620514  0.06944076  0.00000000  1.0
  Ni  Ni13  1  0.25379486  0.93055924  0.00000000  1.0
  Mo  Mo14  1  0.37032265  0.96270107  0.50000000  1.0
  Mo  Mo15  1  0.62967735  0.03729893  0.50000000  1.0
  Mo  Mo16  1  0.12967735  0.46270107  0.00000000  1.0
  Mo  Mo17  1  0.87032265  0.53729893  0.00000000  1.0
  Mo  Mo18  1  0.96270107  0.37032265  0.50000000  1.0
  Mo  Mo19  1  0.03729893  0.62967735  0.50000000  1.0
  Mo  Mo20  1  0.46270107  0.12967735  0.00000000  1.0
  Mo  Mo21  1  0.53729893  0.87032265  0.00000000  1.0
  Mo  Mo22  1  0.31817850  0.68182150  0.25202027  1.0
  Mo  Mo23  1  0.68182150  0.31817850  0.25202027  1.0
  Mo  Mo24  1  0.18182150  0.18182150  0.75202027  1.0
  Mo  Mo25  1  0.81817850  0.81817850  0.75202027  1.0
  Mo  Mo26  1  0.68182150  0.31817850  0.74797973  1.0
  Mo  Mo27  1  0.31817850  0.68182150  0.74797973  1.0
  Mo  Mo28  1  0.81817850  0.81817850  0.24797973  1.0
  Mo  Mo29  1  0.18182150  0.18182150  0.24797973  1.0
