# generated using pymatgen
data_Sr(Cu2As)2
_symmetry_space_group_name_H-M   'P 1'
_cell_length_a   8.25960216
_cell_length_b   8.25960216
_cell_length_c   8.25960216
_cell_angle_alpha   29.51095447
_cell_angle_beta   29.51095447
_cell_angle_gamma   29.51095447
_symmetry_Int_Tables_number   1
_chemical_formula_structural   Sr(Cu2As)2
_chemical_formula_sum   'Sr1 Cu4 As2'
_cell_volume   121.02159745
_cell_formula_units_Z   1
loop_
 _symmetry_equiv_pos_site_id
 _symmetry_equiv_pos_as_xyz
  1  'x, y, z'
loop_
 _atom_site_type_symbol
 _atom_site_label
 _atom_site_symmetry_multiplicity
 _atom_site_fract_x
 _atom_site_fract_y
 _atom_site_fract_z
 _atom_site_occupancy
  Sr  Sr0  1  0.00000000  0.00000000  0.00000000  1.0
  Cu  Cu1  1  0.85555146  0.85555146  0.85555146  1.0
  Cu  Cu2  1  1.14444854  1.14444854  0.14444854  1.0
  Cu  Cu3  1  1.55960846  0.55960846  0.55960846  1.0
  Cu  Cu4  1  1.44039154  0.44039154  0.44039154  1.0
  As  As5  1  0.75163915  0.75163915  0.75163915  1.0
  As  As6  1  1.24836085  1.24836085  0.24836085  1.0
