# generated using pymatgen
data_FeB4O7
_symmetry_space_group_name_H-M   'P 1'
_cell_length_a   6.38080773
_cell_length_b   6.38080773
_cell_length_c   5.24215912
_cell_angle_alpha   90.00000000
_cell_angle_beta   90.00000000
_cell_angle_gamma   61.79148589
_symmetry_Int_Tables_number   1
_chemical_formula_structural   FeB4O7
_chemical_formula_sum   'Fe2 B8 O14'
_cell_volume   188.08422757
_cell_formula_units_Z   2
loop_
 _symmetry_equiv_pos_site_id
 _symmetry_equiv_pos_as_xyz
  1  'x, y, z'
loop_
 _atom_site_type_symbol
 _atom_site_label
 _atom_site_symmetry_multiplicity
 _atom_site_fract_x
 _atom_site_fract_y
 _atom_site_fract_z
 _atom_site_occupancy
  Fe  Fe0  1  -0.24223479  1.24223479  0.25000000  1.0
  Fe  Fe1  1  0.24223479  0.75776521  0.75000000  1.0
  B  B2  1  0.07571651  0.68846244  0.25000000  1.0
  B  B3  1  -0.31153756  1.07571651  0.75000000  1.0
  B  B4  1  0.31153756  0.92428349  0.25000000  1.0
  B  B5  1  -0.07571651  1.31153756  0.75000000  1.0
  B  B6  1  0.70362015  0.70362015  0.50000000  1.0
  B  B7  1  0.70362015  0.70362015  0.00000000  1.0
  B  B8  1  0.29637985  0.29637985  0.50000000  1.0
  B  B9  1  0.29637985  0.29637985  0.00000000  1.0
  O  O10  1  0.08259915  0.91740085  0.25000000  1.0
  O  O11  1  -0.08259915  1.08259915  0.75000000  1.0
  O  O12  1  0.18892329  0.55227650  0.47546628  1.0
  O  O13  1  0.18892329  0.55227650  0.02453372  1.0
  O  O14  1  -0.44772350  1.18892329  0.97546628  1.0
  O  O15  1  -0.44772350  1.18892329  0.52453372  1.0
  O  O16  1  0.44772350  0.81107671  0.47546628  1.0
  O  O17  1  0.44772350  0.81107671  0.02453372  1.0
  O  O18  1  -0.18892329  1.44772350  0.97546628  1.0
  O  O19  1  -0.18892329  1.44772350  0.52453372  1.0
  O  O20  1  -0.19391558  1.75409357  0.25000000  1.0
  O  O21  1  0.75409357  0.80608442  0.75000000  1.0
  O  O22  1  -0.75409357  1.19391558  0.25000000  1.0
  O  O23  1  0.19391558  0.24590643  0.75000000  1.0
